OCO.C=C=O_3
     RDKit          3D

 12 10  0  0  0  0  0  0  0  0999 V2000
   -0.9016    2.5403    1.0395 C   0  0  0  0  0  0  0  0  0  0  0  0
    0.0982   -1.3206    1.9063 C   0  0  0  0  0  0  0  0  0  0  0  0
   -1.0924   -1.0971    1.4032 C   0  0  0  0  0  0  0  0  0  0  0  0
    0.1958    1.7405    1.4128 O   0  0  0  0  0  0  0  0  0  0  0  0
   -2.1638    2.0487    1.4029 O   0  0  0  0  0  0  0  0  0  0  0  0
   -2.1435   -0.8279    0.9694 O   0  0  0  0  0  0  0  0  0  0  0  0
   -2.1931    1.0750    1.2427 H   0  0  0  0  0  0  0  0  0  0  0  0
   -0.8017    3.5312    1.5018 H   0  0  0  0  0  0  0  0  0  0  0  0
   -0.8912    2.6743   -0.0508 H   0  0  0  0  0  0  0  0  0  0  0  0
    1.0452    2.1731    1.1679 H   0  0  0  0  0  0  0  0  0  0  0  0
    0.7346   -0.4931    2.1481 H   0  0  0  0  0  0  0  0  0  0  0  0
    0.4454   -2.3143    2.1012 H   0  0  0  0  0  0  0  0  0  0  0  0
  1  4  1  0
  1  5  1  0
  1  8  1  0
  1  9  1  0
  2  3  2  0
  2 11  1  0
  2 12  1  0
  3  6  2  0
  4 10  1  0
  5  7  1  0
M  END
