OCO.C=C=O_0
     RDKit          3D

 12 10  0  0  0  0  0  0  0  0999 V2000
   -0.8665    3.1781    0.9979 C   0  0  0  0  0  0  0  0  0  0  0  0
   -0.2157   -2.3031    1.4983 C   0  0  0  0  0  0  0  0  0  0  0  0
   -0.5559   -1.1022    1.9033 C   0  0  0  0  0  0  0  0  0  0  0  0
    0.3336    2.5861    1.4350 O   0  0  0  0  0  0  0  0  0  0  0  0
   -1.8455    2.2500    0.5959 O   0  0  0  0  0  0  0  0  0  0  0  0
   -0.8562   -0.0299    2.2558 O   0  0  0  0  0  0  0  0  0  0  0  0
   -1.6942    1.4248    1.1187 H   0  0  0  0  0  0  0  0  0  0  0  0
   -1.2752    3.7879    1.8153 H   0  0  0  0  0  0  0  0  0  0  0  0
   -0.6463    3.8482    0.1578 H   0  0  0  0  0  0  0  0  0  0  0  0
    0.1004    1.7016    1.8097 H   0  0  0  0  0  0  0  0  0  0  0  0
    0.1503   -2.4643    0.5047 H   0  0  0  0  0  0  0  0  0  0  0  0
   -0.2967   -3.1471    2.1526 H   0  0  0  0  0  0  0  0  0  0  0  0
  1  4  1  0
  1  5  1  0
  1  8  1  0
  1  9  1  0
  2  3  2  0
  2 11  1  0
  2 12  1  0
  3  6  2  0
  4 10  1  0
  5  7  1  0
M  END
