OCO.C=C=O_5
     RDKit          3D

 12 10  0  0  0  0  0  0  0  0999 V2000
   -0.9807    2.0089    0.8079 C   0  0  0  0  0  0  0  0  0  0  0  0
    0.2325   -1.2377    2.0327 C   0  0  0  0  0  0  0  0  0  0  0  0
   -0.5610   -1.1649    0.9906 C   0  0  0  0  0  0  0  0  0  0  0  0
   -0.1935    1.7634    1.9435 O   0  0  0  0  0  0  0  0  0  0  0  0
   -1.8953    3.0593    0.9411 O   0  0  0  0  0  0  0  0  0  0  0  0
   -1.2715   -1.0449    0.0707 O   0  0  0  0  0  0  0  0  0  0  0  0
   -2.4365    2.9212    1.7470 H   0  0  0  0  0  0  0  0  0  0  0  0
   -0.3250    2.2376   -0.0426 H   0  0  0  0  0  0  0  0  0  0  0  0
   -1.5299    1.0902    0.5585 H   0  0  0  0  0  0  0  0  0  0  0  0
    0.1722    2.6154    2.2612 H   0  0  0  0  0  0  0  0  0  0  0  0
    0.4946   -0.3446    2.5633 H   0  0  0  0  0  0  0  0  0  0  0  0
    0.6261   -2.1738    2.3711 H   0  0  0  0  0  0  0  0  0  0  0  0
  1  4  1  0
  1  5  1  0
  1  8  1  0
  1  9  1  0
  2  3  2  0
  2 11  1  0
  2 12  1  0
  3  6  2  0
  4 10  1  0
  5  7  1  0
M  END
