OCO.C=C=O
     RDKit          3D

 12 10  0  0  0  0  0  0  0  0999 V2000
   -0.7493    2.3302    1.0068 C   0  0  0  0  0  0  0  0  0  0  0  0
   -0.3826   -1.4653    1.2005 C   0  0  0  0  0  0  0  0  0  0  0  0
   -0.4496   -1.0324    2.4271 C   0  0  0  0  0  0  0  0  0  0  0  0
   -0.3277    2.5507    2.3221 O   0  0  0  0  0  0  0  0  0  0  0  0
   -2.0353    1.7805    1.0254 O   0  0  0  0  0  0  0  0  0  0  0  0
   -0.5134   -0.6201    3.5920 O   0  0  0  0  0  0  0  0  0  0  0  0
   -2.2805    1.6220    0.0768 H   0  0  0  0  0  0  0  0  0  0  0  0
   -0.7647    3.2964    0.4526 H   0  0  0  0  0  0  0  0  0  0  0  0
   -0.0481    1.6260    0.5026 H   0  0  0  0  0  0  0  0  0  0  0  0
    0.5883    2.9272    2.2578 H   0  0  0  0  0  0  0  0  0  0  0  0
   -1.0495   -1.0656    0.4490 H   0  0  0  0  0  0  0  0  0  0  0  0
    0.3444   -2.2195    0.9323 H   0  0  0  0  0  0  0  0  0  0  0  0
  1  4  1  0
  1  5  1  0
  1  8  1  0
  1  9  1  0
  2  3  2  0
  2 11  1  0
  2 12  1  0
  3  6  2  0
  4 10  1  0
  5  7  1  0
M  END
