OCO.C=C=O_6
     RDKit          3D

 12 10  0  0  0  0  0  0  0  0999 V2000
   -1.2189    1.9670    1.2259 C   0  0  0  0  0  0  0  0  0  0  0  0
    0.0831   -1.4260    1.3311 C   0  0  0  0  0  0  0  0  0  0  0  0
   -0.7173   -0.9604    2.2606 C   0  0  0  0  0  0  0  0  0  0  0  0
    0.0462    1.5863    0.7538 O   0  0  0  0  0  0  0  0  0  0  0  0
   -1.4390    3.3481    1.2761 O   0  0  0  0  0  0  0  0  0  0  0  0
   -1.4295   -0.4987    3.0638 O   0  0  0  0  0  0  0  0  0  0  0  0
   -1.2092    3.7468    0.4102 H   0  0  0  0  0  0  0  0  0  0  0  0
   -1.9787    1.5009    0.5851 H   0  0  0  0  0  0  0  0  0  0  0  0
   -1.3622    1.5709    2.2414 H   0  0  0  0  0  0  0  0  0  0  0  0
    0.7262    2.1208    1.2150 H   0  0  0  0  0  0  0  0  0  0  0  0
    0.3633   -2.4588    1.3029 H   0  0  0  0  0  0  0  0  0  0  0  0
    0.4681   -0.7669    0.5791 H   0  0  0  0  0  0  0  0  0  0  0  0
  1  4  1  0
  1  5  1  0
  1  8  1  0
  1  9  1  0
  2  3  2  0
  2 11  1  0
  2 12  1  0
  3  6  2  0
  4 10  1  0
  5  7  1  0
M  END
