C=N.C=C_0
     RDKit          3D

 11  9  0  0  0  0  0  0  0  0999 V2000
   -2.7328   -0.4779    2.8860 C   0  0  0  0  0  0  0  0  0  0  0  0
   -1.4386   -0.1733    2.7579 N   0  0  0  0  0  0  0  0  0  0  0  0
   -0.7368    1.2930   -0.2997 C   0  0  0  0  0  0  0  0  0  0  0  0
    0.4661    1.1200    0.1990 C   0  0  0  0  0  0  0  0  0  0  0  0
   -1.2908    2.1990   -0.1341 H   0  0  0  0  0  0  0  0  0  0  0  0
   -1.0597    0.2444    1.8952 H   0  0  0  0  0  0  0  0  0  0  0  0
   -3.4917   -0.3288    2.1464 H   0  0  0  0  0  0  0  0  0  0  0  0
   -1.8634   -0.6464    3.7259 H   0  0  0  0  0  0  0  0  0  0  0  0
   -1.2090    0.5416   -0.9061 H   0  0  0  0  0  0  0  0  0  0  0  0
    0.9440    1.8773    0.7935 H   0  0  0  0  0  0  0  0  0  0  0  0
    1.0257    0.2199    0.0214 H   0  0  0  0  0  0  0  0  0  0  0  0
  1  2  2  0
  1  7  1  0
  1  8  1  0
  2  6  1  0
  3  4  2  0
  3  5  1  0
  3  9  1  0
  4 10  1  0
  4 11  1  0
M  END
