CC=C=O.OO_9
     RDKit          3D

 12 10  0  0  0  0  0  0  0  0999 V2000
    1.5127   -0.2261    0.8647 C   0  0  0  0  0  0  0  0  0  0  0  0
    0.5064    0.4097   -0.0049 C   0  0  0  0  0  0  0  0  0  0  0  0
   -0.7867    0.1914    0.1346 C   0  0  0  0  0  0  0  0  0  0  0  0
   -3.8241   -1.2680    1.9878 O   0  0  0  0  0  0  0  0  0  0  0  0
   -4.6771   -0.2609    2.5761 O   0  0  0  0  0  0  0  0  0  0  0  0
   -1.9267   -0.0184    0.2883 O   0  0  0  0  0  0  0  0  0  0  0  0
   -4.7754   -0.5491    3.4999 H   0  0  0  0  0  0  0  0  0  0  0  0
    1.2428   -0.1045    1.9161 H   0  0  0  0  0  0  0  0  0  0  0  0
    1.5784   -1.2974    0.6615 H   0  0  0  0  0  0  0  0  0  0  0  0
   -3.2136   -0.7706    1.4029 H   0  0  0  0  0  0  0  0  0  0  0  0
    2.5062    0.2061    0.7238 H   0  0  0  0  0  0  0  0  0  0  0  0
    0.8244    0.9925   -0.8534 H   0  0  0  0  0  0  0  0  0  0  0  0
  1  2  1  0
  1  8  1  0
  1  9  1  0
  1 11  1  0
  2  3  2  0
  2 12  1  0
  3  6  2  0
  4  5  1  0
  4 10  1  0
  5  7  1  0
M  END
