CC=C=O.OO_7
     RDKit          3D

 12 10  0  0  0  0  0  0  0  0999 V2000
    1.6127   -0.1671    0.4581 C   0  0  0  0  0  0  0  0  0  0  0  0
    0.2553    0.2342    0.8693 C   0  0  0  0  0  0  0  0  0  0  0  0
   -0.8131   -0.4808    0.5756 C   0  0  0  0  0  0  0  0  0  0  0  0
   -4.0457   -1.0801    1.9889 O   0  0  0  0  0  0  0  0  0  0  0  0
   -4.0698    0.2486    2.5571 O   0  0  0  0  0  0  0  0  0  0  0  0
   -1.7553   -1.1189    0.3058 O   0  0  0  0  0  0  0  0  0  0  0  0
   -4.9986    0.5200    2.4638 H   0  0  0  0  0  0  0  0  0  0  0  0
    2.3352    0.6414    0.5917 H   0  0  0  0  0  0  0  0  0  0  0  0
    1.9552   -1.0265    1.0389 H   0  0  0  0  0  0  0  0  0  0  0  0
   -3.2588   -1.0787    1.4030 H   0  0  0  0  0  0  0  0  0  0  0  0
    1.6249   -0.4535   -0.5959 H   0  0  0  0  0  0  0  0  0  0  0  0
    0.1255    1.0664    1.5413 H   0  0  0  0  0  0  0  0  0  0  0  0
  1  2  1  0
  1  8  1  0
  1  9  1  0
  1 11  1  0
  2  3  2  0
  2 12  1  0
  3  6  2  0
  4  5  1  0
  4 10  1  0
  5  7  1  0
M  END
