CC=C=O.OO_1
     RDKit          3D

 12 10  0  0  0  0  0  0  0  0999 V2000
    0.4990   -0.0329    1.4474 C   0  0  0  0  0  0  0  0  0  0  0  0
    0.1547    0.5134    0.1215 C   0  0  0  0  0  0  0  0  0  0  0  0
   -1.0611    0.3965   -0.3756 C   0  0  0  0  0  0  0  0  0  0  0  0
   -3.3077   -0.5463    1.7817 O   0  0  0  0  0  0  0  0  0  0  0  0
   -2.2136   -1.2712    2.3945 O   0  0  0  0  0  0  0  0  0  0  0  0
   -2.1761    0.2537   -0.7004 O   0  0  0  0  0  0  0  0  0  0  0  0
   -2.6448   -2.0689    2.7416 H   0  0  0  0  0  0  0  0  0  0  0  0
    0.7733   -1.0876    1.3752 H   0  0  0  0  0  0  0  0  0  0  0  0
    1.3307    0.5065    1.9065 H   0  0  0  0  0  0  0  0  0  0  0  0
   -2.9607   -0.2847    0.9033 H   0  0  0  0  0  0  0  0  0  0  0  0
   -0.3586    0.0348    2.1224 H   0  0  0  0  0  0  0  0  0  0  0  0
    0.9321    0.8914   -0.5208 H   0  0  0  0  0  0  0  0  0  0  0  0
  1  2  1  0
  1  8  1  0
  1  9  1  0
  1 11  1  0
  2  3  2  0
  2 12  1  0
  3  6  2  0
  4  5  1  0
  4 10  1  0
  5  7  1  0
M  END
