CC=C=O.OO_8
     RDKit          3D

 12 10  0  0  0  0  0  0  0  0999 V2000
    1.5450    0.2347    0.8614 C   0  0  0  0  0  0  0  0  0  0  0  0
    0.3065   -0.4171    0.3989 C   0  0  0  0  0  0  0  0  0  0  0  0
   -0.8628    0.1927    0.4156 C   0  0  0  0  0  0  0  0  0  0  0  0
   -4.2650   -0.5309    1.3522 O   0  0  0  0  0  0  0  0  0  0  0  0
   -3.8413   -1.3804    2.4420 O   0  0  0  0  0  0  0  0  0  0  0  0
   -1.8963    0.7397    0.4275 O   0  0  0  0  0  0  0  0  0  0  0  0
   -4.5069   -1.2163    3.1314 H   0  0  0  0  0  0  0  0  0  0  0  0
    1.6301    1.2387    0.4400 H   0  0  0  0  0  0  0  0  0  0  0  0
    1.5492    0.3305    1.9495 H   0  0  0  0  0  0  0  0  0  0  0  0
   -3.4405   -0.0926    1.0506 H   0  0  0  0  0  0  0  0  0  0  0  0
    2.4353   -0.3263    0.5675 H   0  0  0  0  0  0  0  0  0  0  0  0
    0.3139   -1.4680    0.1610 H   0  0  0  0  0  0  0  0  0  0  0  0
  1  2  1  0
  1  8  1  0
  1  9  1  0
  1 11  1  0
  2  3  2  0
  2 12  1  0
  3  6  2  0
  4  5  1  0
  4 10  1  0
  5  7  1  0
M  END
