C[C@H](C=O)OO_0
     RDKit          3D

 12 11  0  0  0  0  0  0  0  0999 V2000
    0.2552    0.0498   -0.7332 C   0  0  0  0  0  0  0  0  0  0  0  0
    0.0129   -0.2033    0.7389 C   0  0  2  0  0  0  0  0  0  0  0  0
   -0.2569    1.0674    1.4813 C   0  0  0  0  0  0  0  0  0  0  0  0
    1.1640   -0.7875    1.2941 O   0  0  0  0  0  0  0  0  0  0  0  0
    2.3042    0.0458    1.0170 O   0  0  0  0  0  0  0  0  0  0  0  0
    0.6096    1.8492    1.7145 O   0  0  0  0  0  0  0  0  0  0  0  0
    2.1840    0.7925    1.6311 H   0  0  0  0  0  0  0  0  0  0  0  0
   -0.6089    0.5100   -1.2153 H   0  0  0  0  0  0  0  0  0  0  0  0
    1.1096    0.7199   -0.8410 H   0  0  0  0  0  0  0  0  0  0  0  0
   -1.2616    1.3321    1.7854 H   0  0  0  0  0  0  0  0  0  0  0  0
    0.5010   -0.8795   -1.2494 H   0  0  0  0  0  0  0  0  0  0  0  0
   -0.8064   -0.9249    0.8930 H   0  0  0  0  0  0  0  0  0  0  0  0
  1  2  1  0
  1  8  1  0
  1  9  1  0
  1 11  1  0
  2  3  1  0
  2  4  1  0
  2 12  1  6
  3  6  2  0
  3 10  1  0
  4  5  1  0
  5  7  1  0
M  END
