C[C@H](C=O)OO_6
     RDKit          3D

 12 11  0  0  0  0  0  0  0  0999 V2000
    0.0235    0.1813   -0.9465 C   0  0  0  0  0  0  0  0  0  0  0  0
    0.1810    0.0758    0.5583 C   0  0  2  0  0  0  0  0  0  0  0  0
    0.1677    1.4271    1.2020 C   0  0  0  0  0  0  0  0  0  0  0  0
    1.3642   -0.6238    0.8964 O   0  0  0  0  0  0  0  0  0  0  0  0
    1.4635   -0.7729    2.3496 O   0  0  0  0  0  0  0  0  0  0  0  0
   -0.5581    2.3121    0.8601 O   0  0  0  0  0  0  0  0  0  0  0  0
    2.4184   -0.7525    2.5276 H   0  0  0  0  0  0  0  0  0  0  0  0
    0.8642    0.7358   -1.3648 H   0  0  0  0  0  0  0  0  0  0  0  0
    0.0075   -0.8061   -1.4105 H   0  0  0  0  0  0  0  0  0  0  0  0
    0.8046    1.6040    2.0599 H   0  0  0  0  0  0  0  0  0  0  0  0
   -0.8928    0.7148   -1.2070 H   0  0  0  0  0  0  0  0  0  0  0  0
   -0.6371   -0.5242    0.9913 H   0  0  0  0  0  0  0  0  0  0  0  0
  1  2  1  0
  1  8  1  0
  1  9  1  0
  1 11  1  0
  2  3  1  0
  2  4  1  0
  2 12  1  1
  3  6  2  0
  3 10  1  0
  4  5  1  0
  5  7  1  0
M  END
