C[C@H](C=O)OO_2
     RDKit          3D

 12 11  0  0  0  0  0  0  0  0999 V2000
    0.3022    0.1194   -0.6504 C   0  0  0  0  0  0  0  0  0  0  0  0
    0.2022    0.3281    0.8440 C   0  0  2  0  0  0  0  0  0  0  0  0
   -0.2893    1.7043    1.1739 C   0  0  0  0  0  0  0  0  0  0  0  0
    1.4565    0.0741    1.4352 O   0  0  0  0  0  0  0  0  0  0  0  0
    1.9170   -1.2526    1.0414 O   0  0  0  0  0  0  0  0  0  0  0  0
   -1.2700    2.1772    0.6835 O   0  0  0  0  0  0  0  0  0  0  0  0
    2.1047   -1.6922    1.8869 H   0  0  0  0  0  0  0  0  0  0  0  0
    1.0142    0.8305   -1.0709 H   0  0  0  0  0  0  0  0  0  0  0  0
    0.6686   -0.8848   -0.8710 H   0  0  0  0  0  0  0  0  0  0  0  0
    0.2517    2.3038    1.8951 H   0  0  0  0  0  0  0  0  0  0  0  0
   -0.6627    0.2721   -1.1382 H   0  0  0  0  0  0  0  0  0  0  0  0
   -0.4883   -0.4086    1.2868 H   0  0  0  0  0  0  0  0  0  0  0  0
  1  2  1  0
  1  8  1  0
  1  9  1  0
  1 11  1  0
  2  3  1  0
  2  4  1  0
  2 12  1  1
  3  6  2  0
  3 10  1  0
  4  5  1  0
  5  7  1  0
M  END
