C[C@H](C=O)OO_3
     RDKit          3D

 12 11  0  0  0  0  0  0  0  0999 V2000
   -0.0758    0.1203   -0.9077 C   0  0  0  0  0  0  0  0  0  0  0  0
    0.1868   -0.0668    0.5760 C   0  0  2  0  0  0  0  0  0  0  0  0
    0.1768    1.2333    1.3184 C   0  0  0  0  0  0  0  0  0  0  0  0
    1.4464   -0.6735    0.7755 O   0  0  0  0  0  0  0  0  0  0  0  0
    1.8133   -0.6075    2.1674 O   0  0  0  0  0  0  0  0  0  0  0  0
    1.1808    1.8049    1.6033 O   0  0  0  0  0  0  0  0  0  0  0  0
    2.1690    0.2961    2.2490 H   0  0  0  0  0  0  0  0  0  0  0  0
    0.6871    0.7747   -1.3313 H   0  0  0  0  0  0  0  0  0  0  0  0
   -0.0221   -0.8340   -1.4336 H   0  0  0  0  0  0  0  0  0  0  0  0
   -0.7603    1.7148    1.5644 H   0  0  0  0  0  0  0  0  0  0  0  0
   -1.0528    0.5694   -1.0924 H   0  0  0  0  0  0  0  0  0  0  0  0
   -0.5423   -0.7604    1.0273 H   0  0  0  0  0  0  0  0  0  0  0  0
  1  2  1  0
  1  8  1  0
  1  9  1  0
  1 11  1  0
  2  3  1  0
  2  4  1  0
  2 12  1  1
  3  6  2  0
  3 10  1  0
  4  5  1  0
  5  7  1  0
M  END
