C[C@H](C=O)OO
     RDKit          3D

 12 11  0  0  0  0  0  0  0  0999 V2000
    0.0651    0.1111   -0.8439 C   0  0  0  0  0  0  0  0  0  0  0  0
    0.3591    0.1368    0.6546 C   0  0  2  0  0  0  0  0  0  0  0  0
   -0.2365    1.3688    1.2814 C   0  0  0  0  0  0  0  0  0  0  0  0
    1.7541    0.1160    0.8507 O   0  0  0  0  0  0  0  0  0  0  0  0
    1.9560   -0.2585    2.1018 O   0  0  0  0  0  0  0  0  0  0  0  0
    0.1606    2.4806    0.9691 O   0  0  0  0  0  0  0  0  0  0  0  0
    2.3092   -1.1828    2.0362 H   0  0  0  0  0  0  0  0  0  0  0  0
    0.4779   -0.8183   -1.2907 H   0  0  0  0  0  0  0  0  0  0  0  0
   -1.0318    0.1297   -1.0216 H   0  0  0  0  0  0  0  0  0  0  0  0
   -1.0197    1.2706    2.0260 H   0  0  0  0  0  0  0  0  0  0  0  0
    0.5306    0.9845   -1.3495 H   0  0  0  0  0  0  0  0  0  0  0  0
   -0.1178   -0.7671    1.1023 H   0  0  0  0  0  0  0  0  0  0  0  0
  1  2  1  0
  1  8  1  0
  1  9  1  0
  1 11  1  0
  2  3  1  0
  2  4  1  0
  2 12  1  1
  3  6  2  0
  3 10  1  0
  4  5  1  0
  5  7  1  0
M  END
