C[C@H](C=O)OO_5
     RDKit          3D

 12 11  0  0  0  0  0  0  0  0999 V2000
    0.0346    0.1700   -0.9297 C   0  0  0  0  0  0  0  0  0  0  0  0
    0.2674    0.1112    0.5679 C   0  0  2  0  0  0  0  0  0  0  0  0
    0.0932    1.4587    1.1948 C   0  0  0  0  0  0  0  0  0  0  0  0
    1.5554   -0.3973    0.8622 O   0  0  0  0  0  0  0  0  0  0  0  0
    1.7746   -0.4009    2.3051 O   0  0  0  0  0  0  0  0  0  0  0  0
   -0.8193    2.1876    0.9446 O   0  0  0  0  0  0  0  0  0  0  0  0
    1.9869   -1.3267    2.5079 H   0  0  0  0  0  0  0  0  0  0  0  0
    0.7723    0.8292   -1.3887 H   0  0  0  0  0  0  0  0  0  0  0  0
    0.1373   -0.8166   -1.3839 H   0  0  0  0  0  0  0  0  0  0  0  0
    0.8031    1.7766    1.9498 H   0  0  0  0  0  0  0  0  0  0  0  0
   -0.9571    0.5668   -1.1559 H   0  0  0  0  0  0  0  0  0  0  0  0
   -0.4416   -0.5872    1.0423 H   0  0  0  0  0  0  0  0  0  0  0  0
  1  2  1  0
  1  8  1  0
  1  9  1  0
  1 11  1  0
  2  3  1  0
  2  4  1  0
  2 12  1  1
  3  6  2  0
  3 10  1  0
  4  5  1  0
  5  7  1  0
M  END
