OCC=C(O)O_5
     RDKit          3D

 12 11  0  0  0  0  0  0  0  0999 V2000
   -0.3273   -0.4748    0.6144 C   0  0  0  0  0  0  0  0  0  0  0  0
    0.4607    0.5811    0.2985 C   0  0  0  0  0  0  0  0  0  0  0  0
    1.5069    1.0907    1.2152 C   0  0  0  0  0  0  0  0  0  0  0  0
   -1.3053   -0.9157   -0.2446 O   0  0  0  0  0  0  0  0  0  0  0  0
   -0.1544   -1.1266    1.8081 O   0  0  0  0  0  0  0  0  0  0  0  0
    2.6440    1.5964    0.5503 O   0  0  0  0  0  0  0  0  0  0  0  0
   -0.8141   -1.8478    1.8427 H   0  0  0  0  0  0  0  0  0  0  0  0
   -1.3296   -0.3666   -1.0582 H   0  0  0  0  0  0  0  0  0  0  0  0
    1.8282    0.2965    1.9035 H   0  0  0  0  0  0  0  0  0  0  0  0
    1.1079    1.9038    1.8358 H   0  0  0  0  0  0  0  0  0  0  0  0
    3.0177    0.9142   -0.0498 H   0  0  0  0  0  0  0  0  0  0  0  0
    0.3120    1.0909   -0.6349 H   0  0  0  0  0  0  0  0  0  0  0  0
  1  2  2  0
  1  4  1  0
  1  5  1  0
  2  3  1  0
  2 12  1  0
  3  6  1  0
  3  9  1  0
  3 10  1  0
  4  8  1  0
  5  7  1  0
  6 11  1  0
M  END
