OCC=C(O)O_7
     RDKit          3D

 12 11  0  0  0  0  0  0  0  0999 V2000
   -0.4066   -0.3245    0.3969 C   0  0  0  0  0  0  0  0  0  0  0  0
    0.5552    0.5908    0.1205 C   0  0  0  0  0  0  0  0  0  0  0  0
    1.7049    0.8403    1.0197 C   0  0  0  0  0  0  0  0  0  0  0  0
   -1.4430   -0.4972   -0.4898 O   0  0  0  0  0  0  0  0  0  0  0  0
   -0.3269   -1.0599    1.5544 O   0  0  0  0  0  0  0  0  0  0  0  0
    2.5752    1.8377    0.5199 O   0  0  0  0  0  0  0  0  0  0  0  0
   -1.0859   -1.6771    1.6191 H   0  0  0  0  0  0  0  0  0  0  0  0
   -2.0609   -1.1862   -0.1657 H   0  0  0  0  0  0  0  0  0  0  0  0
    2.2724   -0.0905    1.1564 H   0  0  0  0  0  0  0  0  0  0  0  0
    1.3374    1.1518    2.0072 H   0  0  0  0  0  0  0  0  0  0  0  0
    3.3328    1.9912    1.1280 H   0  0  0  0  0  0  0  0  0  0  0  0
    0.4919    1.1658   -0.7858 H   0  0  0  0  0  0  0  0  0  0  0  0
  1  2  2  0
  1  4  1  0
  1  5  1  0
  2  3  1  0
  2 12  1  0
  3  6  1  0
  3  9  1  0
  3 10  1  0
  4  8  1  0
  5  7  1  0
  6 11  1  0
M  END
