OCC=C(O)O_9
     RDKit          3D

 12 11  0  0  0  0  0  0  0  0999 V2000
   -0.5615   -0.2971    0.2932 C   0  0  0  0  0  0  0  0  0  0  0  0
    0.4760    0.5522    0.1009 C   0  0  0  0  0  0  0  0  0  0  0  0
    1.6120    0.6900    1.0392 C   0  0  0  0  0  0  0  0  0  0  0  0
   -1.5714   -0.3554   -0.6338 O   0  0  0  0  0  0  0  0  0  0  0  0
   -0.6400   -1.1113    1.3952 O   0  0  0  0  0  0  0  0  0  0  0  0
    2.5546    1.6481    0.5941 O   0  0  0  0  0  0  0  0  0  0  0  0
    0.1308   -0.9889    1.9900 H   0  0  0  0  0  0  0  0  0  0  0  0
   -2.2176   -1.0190   -0.3192 H   0  0  0  0  0  0  0  0  0  0  0  0
    2.1250   -0.2750    1.1506 H   0  0  0  0  0  0  0  0  0  0  0  0
    1.2458    0.9975    2.0281 H   0  0  0  0  0  0  0  0  0  0  0  0
    3.3060    1.7339    1.2227 H   0  0  0  0  0  0  0  0  0  0  0  0
    0.4868    1.1672   -0.7802 H   0  0  0  0  0  0  0  0  0  0  0  0
  1  2  2  0
  1  4  1  0
  1  5  1  0
  2  3  1  0
  2 12  1  0
  3  6  1  0
  3  9  1  0
  3 10  1  0
  4  8  1  0
  5  7  1  0
  6 11  1  0
M  END
