OCC=C(O)O
     RDKit          3D

 12 11  0  0  0  0  0  0  0  0999 V2000
   -0.2889   -0.4696    0.5036 C   0  0  0  0  0  0  0  0  0  0  0  0
    0.2469    0.7394    0.3019 C   0  0  0  0  0  0  0  0  0  0  0  0
    1.4728    1.2032    1.0287 C   0  0  0  0  0  0  0  0  0  0  0  0
   -1.4352   -0.8591   -0.1888 O   0  0  0  0  0  0  0  0  0  0  0  0
    0.2901   -1.3550    1.4088 O   0  0  0  0  0  0  0  0  0  0  0  0
    2.5710    0.4205    0.6517 O   0  0  0  0  0  0  0  0  0  0  0  0
   -0.1131   -2.2708    1.5641 H   0  0  0  0  0  0  0  0  0  0  0  0
   -1.8913   -0.2483   -0.8572 H   0  0  0  0  0  0  0  0  0  0  0  0
    1.3061    1.1304    2.1268 H   0  0  0  0  0  0  0  0  0  0  0  0
    1.6671    2.2672    0.7684 H   0  0  0  0  0  0  0  0  0  0  0  0
    3.3440    0.7641    1.1706 H   0  0  0  0  0  0  0  0  0  0  0  0
   -0.2229    1.4202   -0.3978 H   0  0  0  0  0  0  0  0  0  0  0  0
  1  2  2  0
  1  4  1  0
  1  5  1  0
  2  3  1  0
  2 12  1  0
  3  6  1  0
  3  9  1  0
  3 10  1  0
  4  8  1  0
  5  7  1  0
  6 11  1  0
M  END
