OCC=C(O)O_10
     RDKit          3D

 12 11  0  0  0  0  0  0  0  0999 V2000
   -0.2949   -0.5546    0.3158 C   0  0  0  0  0  0  0  0  0  0  0  0
    0.1656    0.7173    0.4300 C   0  0  0  0  0  0  0  0  0  0  0  0
    1.5914    1.0283    0.7089 C   0  0  0  0  0  0  0  0  0  0  0  0
   -1.6090   -0.7870   -0.0251 O   0  0  0  0  0  0  0  0  0  0  0  0
    0.5526   -1.6133    0.5440 O   0  0  0  0  0  0  0  0  0  0  0  0
    2.1490    0.2773    1.7636 O   0  0  0  0  0  0  0  0  0  0  0  0
    1.4015   -1.2773    0.9072 H   0  0  0  0  0  0  0  0  0  0  0  0
   -2.0961    0.0553   -0.1624 H   0  0  0  0  0  0  0  0  0  0  0  0
    1.7352    2.0952    0.9300 H   0  0  0  0  0  0  0  0  0  0  0  0
    2.1977    0.8134   -0.1811 H   0  0  0  0  0  0  0  0  0  0  0  0
    1.6667    0.4553    2.6003 H   0  0  0  0  0  0  0  0  0  0  0  0
   -0.5130    1.5322    0.2495 H   0  0  0  0  0  0  0  0  0  0  0  0
  1  2  2  0
  1  4  1  0
  1  5  1  0
  2  3  1  0
  2 12  1  0
  3  6  1  0
  3  9  1  0
  3 10  1  0
  4  8  1  0
  5  7  1  0
  6 11  1  0
M  END
