OCC=C(O)O_6
     RDKit          3D

 12 11  0  0  0  0  0  0  0  0999 V2000
   -0.4234   -0.4931    0.6051 C   0  0  0  0  0  0  0  0  0  0  0  0
    0.4445    0.4702    0.2133 C   0  0  0  0  0  0  0  0  0  0  0  0
    1.6529    0.8159    0.9945 C   0  0  0  0  0  0  0  0  0  0  0  0
   -1.5378   -0.7922   -0.1416 O   0  0  0  0  0  0  0  0  0  0  0  0
   -0.1991   -1.1898    1.7641 O   0  0  0  0  0  0  0  0  0  0  0  0
    2.4087    1.8498    0.3924 O   0  0  0  0  0  0  0  0  0  0  0  0
   -0.9323   -1.8296    1.8635 H   0  0  0  0  0  0  0  0  0  0  0  0
   -1.5839   -0.2267   -0.9427 H   0  0  0  0  0  0  0  0  0  0  0  0
    2.2888   -0.0740    1.0997 H   0  0  0  0  0  0  0  0  0  0  0  0
    1.3585    1.1329    2.0045 H   0  0  0  0  0  0  0  0  0  0  0  0
    3.2072    2.0667    0.9240 H   0  0  0  0  0  0  0  0  0  0  0  0
    0.2624    1.0120   -0.6960 H   0  0  0  0  0  0  0  0  0  0  0  0
  1  2  2  0
  1  4  1  0
  1  5  1  0
  2  3  1  0
  2 12  1  0
  3  6  1  0
  3  9  1  0
  3 10  1  0
  4  8  1  0
  5  7  1  0
  6 11  1  0
M  END
