OCC=C(O)O_0
     RDKit          3D

 12 11  0  0  0  0  0  0  0  0999 V2000
   -0.3901   -0.2675    0.2899 C   0  0  0  0  0  0  0  0  0  0  0  0
    0.1865    0.9363    0.5269 C   0  0  0  0  0  0  0  0  0  0  0  0
    1.6456    1.0854    0.7609 C   0  0  0  0  0  0  0  0  0  0  0  0
   -1.7283   -0.3453   -0.0011 O   0  0  0  0  0  0  0  0  0  0  0  0
    0.3451   -1.4250    0.3380 O   0  0  0  0  0  0  0  0  0  0  0  0
    2.1798    0.1520    1.6728 O   0  0  0  0  0  0  0  0  0  0  0  0
    1.2431   -1.2179    0.6757 H   0  0  0  0  0  0  0  0  0  0  0  0
   -1.9417   -1.2897   -0.1404 H   0  0  0  0  0  0  0  0  0  0  0  0
    1.8951    2.0961    1.1130 H   0  0  0  0  0  0  0  0  0  0  0  0
    2.1879    0.9450   -0.1835 H   0  0  0  0  0  0  0  0  0  0  0  0
    1.7551    0.2571    2.5521 H   0  0  0  0  0  0  0  0  0  0  0  0
   -0.4315    1.8156    0.4765 H   0  0  0  0  0  0  0  0  0  0  0  0
  1  2  2  0
  1  4  1  0
  1  5  1  0
  2  3  1  0
  2 12  1  0
  3  6  1  0
  3  9  1  0
  3 10  1  0
  4  8  1  0
  5  7  1  0
  6 11  1  0
M  END
