OCC=C(O)O_1
     RDKit          3D

 12 11  0  0  0  0  0  0  0  0999 V2000
   -0.1925   -0.2395    0.3872 C   0  0  0  0  0  0  0  0  0  0  0  0
    0.3062    1.0210    0.3233 C   0  0  0  0  0  0  0  0  0  0  0  0
    1.5333    1.4258    1.0566 C   0  0  0  0  0  0  0  0  0  0  0  0
   -1.3493   -0.5390   -0.2943 O   0  0  0  0  0  0  0  0  0  0  0  0
    0.4607   -1.1970    1.1257 O   0  0  0  0  0  0  0  0  0  0  0  0
    2.5865    0.5018    0.9342 O   0  0  0  0  0  0  0  0  0  0  0  0
   -0.0322   -2.0429    1.0930 H   0  0  0  0  0  0  0  0  0  0  0  0
   -1.5868   -1.4822   -0.1705 H   0  0  0  0  0  0  0  0  0  0  0  0
    1.3130    1.5480    2.1263 H   0  0  0  0  0  0  0  0  0  0  0  0
    1.9149    2.3907    0.6966 H   0  0  0  0  0  0  0  0  0  0  0  0
    2.2166   -0.3994    1.0615 H   0  0  0  0  0  0  0  0  0  0  0  0
   -0.2238    1.7549   -0.2590 H   0  0  0  0  0  0  0  0  0  0  0  0
  1  2  2  0
  1  4  1  0
  1  5  1  0
  2  3  1  0
  2 12  1  0
  3  6  1  0
  3  9  1  0
  3 10  1  0
  4  8  1  0
  5  7  1  0
  6 11  1  0
M  END
