OCC=C(O)O_4
     RDKit          3D

 12 11  0  0  0  0  0  0  0  0999 V2000
   -0.3148   -0.3066    0.4141 C   0  0  0  0  0  0  0  0  0  0  0  0
    0.5756    0.6979    0.2181 C   0  0  0  0  0  0  0  0  0  0  0  0
    1.5625    1.1020    1.2473 C   0  0  0  0  0  0  0  0  0  0  0  0
   -1.2133   -0.6118   -0.5806 O   0  0  0  0  0  0  0  0  0  0  0  0
   -0.2982   -1.0011    1.5994 O   0  0  0  0  0  0  0  0  0  0  0  0
    2.7757    1.5817    0.7098 O   0  0  0  0  0  0  0  0  0  0  0  0
   -0.9939   -1.6917    1.6002 H   0  0  0  0  0  0  0  0  0  0  0  0
   -1.7929   -1.3527   -0.3040 H   0  0  0  0  0  0  0  0  0  0  0  0
    1.7849    0.2563    1.9128 H   0  0  0  0  0  0  0  0  0  0  0  0
    1.1508    1.9006    1.8781 H   0  0  0  0  0  0  0  0  0  0  0  0
    3.1580    0.9211    0.0915 H   0  0  0  0  0  0  0  0  0  0  0  0
    0.5523    1.2466   -0.7058 H   0  0  0  0  0  0  0  0  0  0  0  0
  1  2  2  0
  1  4  1  0
  1  5  1  0
  2  3  1  0
  2 12  1  0
  3  6  1  0
  3  9  1  0
  3 10  1  0
  4  8  1  0
  5  7  1  0
  6 11  1  0
M  END
