C=O.C=C=O.O_8
     RDKit          3D

 12  9  0  0  0  0  0  0  0  0999 V2000
   -2.3000   -3.6117   -0.1885 C   0  0  0  0  0  0  0  0  0  0  0  0
   -0.7717    3.6053    2.1151 C   0  0  0  0  0  0  0  0  0  0  0  0
   -1.3082    2.7406    1.2870 C   0  0  0  0  0  0  0  0  0  0  0  0
   -1.5737   -2.7254    0.1240 O   0  0  0  0  0  0  0  0  0  0  0  0
   -2.7387   -0.5574    1.7430 O   0  0  0  0  0  0  0  0  0  0  0  0
   -1.7885    1.9607    0.5616 O   0  0  0  0  0  0  0  0  0  0  0  0
   -2.3288   -1.2686    1.2070 H   0  0  0  0  0  0  0  0  0  0  0  0
   -3.3299   -3.5957    0.1353 H   0  0  0  0  0  0  0  0  0  0  0  0
   -1.9220   -4.4197   -0.7960 H   0  0  0  0  0  0  0  0  0  0  0  0
   -2.4339    0.2791    1.3337 H   0  0  0  0  0  0  0  0  0  0  0  0
   -0.6862    3.3831    3.1592 H   0  0  0  0  0  0  0  0  0  0  0  0
   -0.4084    4.5498    1.7651 H   0  0  0  0  0  0  0  0  0  0  0  0
  1  4  2  0
  1  8  1  0
  1  9  1  0
  2  3  2  0
  2 11  1  0
  2 12  1  0
  3  6  2  0
  5  7  1  0
  5 10  1  0
M  END
