C=O.C=C=O.O_18
     RDKit          3D

 12  9  0  0  0  0  0  0  0  0999 V2000
   -0.0313   -2.2899   -0.2167 C   0  0  0  0  0  0  0  0  0  0  0  0
   -0.7617    1.1559    0.9335 C   0  0  0  0  0  0  0  0  0  0  0  0
   -1.9747    0.7288    1.1931 C   0  0  0  0  0  0  0  0  0  0  0  0
    0.6166   -1.2961   -0.1557 O   0  0  0  0  0  0  0  0  0  0  0  0
   -5.0363    1.8699    2.8743 O   0  0  0  0  0  0  0  0  0  0  0  0
   -3.0490    0.3245    1.4112 O   0  0  0  0  0  0  0  0  0  0  0  0
   -5.8384    1.3212    2.8588 H   0  0  0  0  0  0  0  0  0  0  0  0
   -1.0603   -2.2771    0.1115 H   0  0  0  0  0  0  0  0  0  0  0  0
    0.4179   -3.1939   -0.5993 H   0  0  0  0  0  0  0  0  0  0  0  0
   -4.3621    1.3548    2.3843 H   0  0  0  0  0  0  0  0  0  0  0  0
   -0.4685    2.1672    1.1259 H   0  0  0  0  0  0  0  0  0  0  0  0
   -0.0422    0.4748    0.5255 H   0  0  0  0  0  0  0  0  0  0  0  0
  1  4  2  0
  1  8  1  0
  1  9  1  0
  2  3  2  0
  2 11  1  0
  2 12  1  0
  3  6  2  0
  5  7  1  0
  5 10  1  0
M  END
