C=O.C=C=O.O_12
     RDKit          3D

 12  9  0  0  0  0  0  0  0  0999 V2000
   -0.5837   -1.9834    0.2386 C   0  0  0  0  0  0  0  0  0  0  0  0
   -0.5279    1.5232    0.7513 C   0  0  0  0  0  0  0  0  0  0  0  0
   -1.4874    0.8273    1.3142 C   0  0  0  0  0  0  0  0  0  0  0  0
    0.2144   -1.1974   -0.1583 O   0  0  0  0  0  0  0  0  0  0  0  0
   -5.1239    0.9000    1.9549 O   0  0  0  0  0  0  0  0  0  0  0  0
   -2.3086    0.1696    1.8226 O   0  0  0  0  0  0  0  0  0  0  0  0
   -4.1767    0.6554    1.8997 H   0  0  0  0  0  0  0  0  0  0  0  0
   -0.5059   -3.0189   -0.0538 H   0  0  0  0  0  0  0  0  0  0  0  0
   -1.3827   -1.6466    0.8845 H   0  0  0  0  0  0  0  0  0  0  0  0
   -5.4446    0.5022    2.7819 H   0  0  0  0  0  0  0  0  0  0  0  0
    0.2214    1.0193    0.1729 H   0  0  0  0  0  0  0  0  0  0  0  0
   -0.4843    2.5893    0.8380 H   0  0  0  0  0  0  0  0  0  0  0  0
  1  4  2  0
  1  8  1  0
  1  9  1  0
  2  3  2  0
  2 11  1  0
  2 12  1  0
  3  6  2  0
  5  7  1  0
  5 10  1  0
M  END
