C=O.C=C=O.O_7
     RDKit          3D

 12  9  0  0  0  0  0  0  0  0999 V2000
   -2.5119   -3.8225    0.2544 C   0  0  0  0  0  0  0  0  0  0  0  0
   -1.0608    3.8212    2.0321 C   0  0  0  0  0  0  0  0  0  0  0  0
   -0.7798    2.5518    1.8553 C   0  0  0  0  0  0  0  0  0  0  0  0
   -2.1598   -2.9971    1.0324 O   0  0  0  0  0  0  0  0  0  0  0  0
   -2.5540   -0.1802    0.2674 O   0  0  0  0  0  0  0  0  0  0  0  0
   -0.5417    1.4198    1.6913 O   0  0  0  0  0  0  0  0  0  0  0  0
   -2.4128   -1.1091    0.5464 H   0  0  0  0  0  0  0  0  0  0  0  0
   -2.3708   -4.8667    0.4872 H   0  0  0  0  0  0  0  0  0  0  0  0
   -2.9686   -3.5178   -0.6752 H   0  0  0  0  0  0  0  0  0  0  0  0
   -1.8711    0.3368    0.7431 H   0  0  0  0  0  0  0  0  0  0  0  0
   -1.9673    4.2402    1.6455 H   0  0  0  0  0  0  0  0  0  0  0  0
   -0.3913    4.4636    2.5665 H   0  0  0  0  0  0  0  0  0  0  0  0
  1  4  2  0
  1  8  1  0
  1  9  1  0
  2  3  2  0
  2 11  1  0
  2 12  1  0
  3  6  2  0
  5  7  1  0
  5 10  1  0
M  END
