C=O.C=C=O.O_14
     RDKit          3D

 12  9  0  0  0  0  0  0  0  0999 V2000
   -2.1112   -1.1759    0.9804 C   0  0  0  0  0  0  0  0  0  0  0  0
    0.8477    2.8018    0.9708 C   0  0  0  0  0  0  0  0  0  0  0  0
    0.6201    1.5100    0.9335 C   0  0  0  0  0  0  0  0  0  0  0  0
   -3.2516   -0.8617    1.0778 O   0  0  0  0  0  0  0  0  0  0  0  0
   -5.6252   -2.5126    1.1853 O   0  0  0  0  0  0  0  0  0  0  0  0
    0.4040    0.3624    0.9014 O   0  0  0  0  0  0  0  0  0  0  0  0
   -4.8094   -1.9724    1.1412 H   0  0  0  0  0  0  0  0  0  0  0  0
   -1.8401   -2.2166    0.8952 H   0  0  0  0  0  0  0  0  0  0  0  0
   -1.3580   -0.4028    0.9777 H   0  0  0  0  0  0  0  0  0  0  0  0
   -6.3318   -1.8800    1.3969 H   0  0  0  0  0  0  0  0  0  0  0  0
    1.4507    3.2314    1.7444 H   0  0  0  0  0  0  0  0  0  0  0  0
    0.4150    3.4564    0.2420 H   0  0  0  0  0  0  0  0  0  0  0  0
  1  4  2  0
  1  8  1  0
  1  9  1  0
  2  3  2  0
  2 11  1  0
  2 12  1  0
  3  6  2  0
  5  7  1  0
  5 10  1  0
M  END
