C=O.C=C=O.O_17
     RDKit          3D

 12  9  0  0  0  0  0  0  0  0999 V2000
    0.4683   -2.5482   -0.5044 C   0  0  0  0  0  0  0  0  0  0  0  0
   -1.1590    0.9335    0.8187 C   0  0  0  0  0  0  0  0  0  0  0  0
   -2.2681    0.6675    1.4668 C   0  0  0  0  0  0  0  0  0  0  0  0
    0.4588   -1.3680   -0.3734 O   0  0  0  0  0  0  0  0  0  0  0  0
   -5.1053    2.4873    2.9600 O   0  0  0  0  0  0  0  0  0  0  0  0
   -3.2571    0.4364    2.0443 O   0  0  0  0  0  0  0  0  0  0  0  0
   -5.8044    1.9984    3.4256 H   0  0  0  0  0  0  0  0  0  0  0  0
   -0.3419   -3.1363   -0.0999 H   0  0  0  0  0  0  0  0  0  0  0  0
    1.2884   -3.0177   -1.0265 H   0  0  0  0  0  0  0  0  0  0  0  0
   -4.4782    1.8029    2.6468 H   0  0  0  0  0  0  0  0  0  0  0  0
   -0.5725    0.1434    0.3928 H   0  0  0  0  0  0  0  0  0  0  0  0
   -0.8189    1.9410    0.6958 H   0  0  0  0  0  0  0  0  0  0  0  0
  1  4  2  0
  1  8  1  0
  1  9  1  0
  2  3  2  0
  2 11  1  0
  2 12  1  0
  3  6  2  0
  5  7  1  0
  5 10  1  0
M  END
