C=O.C=C=O.O_11
     RDKit          3D

 12  9  0  0  0  0  0  0  0  0999 V2000
   -0.4053   -1.9462    0.1081 C   0  0  0  0  0  0  0  0  0  0  0  0
   -0.5815    1.4783    0.9887 C   0  0  0  0  0  0  0  0  0  0  0  0
   -1.6542    0.7422    1.1599 C   0  0  0  0  0  0  0  0  0  0  0  0
    0.4531   -1.1283    0.0269 O   0  0  0  0  0  0  0  0  0  0  0  0
   -5.0713    1.1135    2.3538 O   0  0  0  0  0  0  0  0  0  0  0  0
   -2.5791    0.0401    1.2912 O   0  0  0  0  0  0  0  0  0  0  0  0
   -5.6743    0.3527    2.4007 H   0  0  0  0  0  0  0  0  0  0  0  0
   -1.3754   -1.6591    0.4894 H   0  0  0  0  0  0  0  0  0  0  0  0
   -0.2075   -2.9615   -0.1981 H   0  0  0  0  0  0  0  0  0  0  0  0
   -4.2315    0.7573    1.9962 H   0  0  0  0  0  0  0  0  0  0  0  0
    0.3093    1.0317    0.5927 H   0  0  0  0  0  0  0  0  0  0  0  0
   -0.5720    2.5196    1.2371 H   0  0  0  0  0  0  0  0  0  0  0  0
  1  4  2  0
  1  8  1  0
  1  9  1  0
  2  3  2  0
  2 11  1  0
  2 12  1  0
  3  6  2  0
  5  7  1  0
  5 10  1  0
M  END
