C=O.C=C=O.O_4
     RDKit          3D

 12  9  0  0  0  0  0  0  0  0999 V2000
   -2.3065   -3.7930    0.0830 C   0  0  0  0  0  0  0  0  0  0  0  0
   -1.0277    3.8315    1.8702 C   0  0  0  0  0  0  0  0  0  0  0  0
   -0.9404    2.5318    2.0277 C   0  0  0  0  0  0  0  0  0  0  0  0
   -1.5998   -2.8387    0.1030 O   0  0  0  0  0  0  0  0  0  0  0  0
   -2.8597   -0.2494    0.7239 O   0  0  0  0  0  0  0  0  0  0  0  0
   -0.8736    1.3729    2.1596 O   0  0  0  0  0  0  0  0  0  0  0  0
   -2.4170   -1.0984    0.5139 H   0  0  0  0  0  0  0  0  0  0  0  0
   -3.3632   -3.6772    0.2717 H   0  0  0  0  0  0  0  0  0  0  0  0
   -1.8829   -4.7638   -0.1234 H   0  0  0  0  0  0  0  0  0  0  0  0
   -2.1906    0.2747    1.2113 H   0  0  0  0  0  0  0  0  0  0  0  0
   -1.8174    4.2606    1.2879 H   0  0  0  0  0  0  0  0  0  0  0  0
   -0.3111    4.4892    2.3177 H   0  0  0  0  0  0  0  0  0  0  0  0
  1  4  2  0
  1  8  1  0
  1  9  1  0
  2  3  2  0
  2 11  1  0
  2 12  1  0
  3  6  2  0
  5  7  1  0
  5 10  1  0
M  END
