C=O.C=C=O.O_2
     RDKit          3D

 12  9  0  0  0  0  0  0  0  0999 V2000
   -1.6610   -2.1258   -0.3337 C   0  0  0  0  0  0  0  0  0  0  0  0
   -0.5653    1.7166    1.2756 C   0  0  0  0  0  0  0  0  0  0  0  0
   -1.5468    2.0455    2.0817 C   0  0  0  0  0  0  0  0  0  0  0  0
   -1.4485   -1.0691    0.1650 O   0  0  0  0  0  0  0  0  0  0  0  0
   -3.6882   -0.3372    1.9972 O   0  0  0  0  0  0  0  0  0  0  0  0
   -2.4679    2.2458    2.7735 O   0  0  0  0  0  0  0  0  0  0  0  0
   -2.9665   -0.6054    1.3877 H   0  0  0  0  0  0  0  0  0  0  0  0
   -0.9459   -2.5411   -1.0278 H   0  0  0  0  0  0  0  0  0  0  0  0
   -2.5682   -2.6583   -0.0862 H   0  0  0  0  0  0  0  0  0  0  0  0
   -3.3982    0.5334    2.3345 H   0  0  0  0  0  0  0  0  0  0  0  0
   -0.6159    0.7829    0.7508 H   0  0  0  0  0  0  0  0  0  0  0  0
    0.2825    2.3530    1.1284 H   0  0  0  0  0  0  0  0  0  0  0  0
  1  4  2  0
  1  8  1  0
  1  9  1  0
  2  3  2  0
  2 11  1  0
  2 12  1  0
  3  6  2  0
  5  7  1  0
  5 10  1  0
M  END
