C=O.C=C=O.O_5
     RDKit          3D

 12  9  0  0  0  0  0  0  0  0999 V2000
   -2.5735   -3.7661    0.1528 C   0  0  0  0  0  0  0  0  0  0  0  0
   -0.7654    3.7829    1.8026 C   0  0  0  0  0  0  0  0  0  0  0  0
   -0.7738    2.4845    1.9915 C   0  0  0  0  0  0  0  0  0  0  0  0
   -1.7950   -2.8693    0.1712 O   0  0  0  0  0  0  0  0  0  0  0  0
   -2.8658   -0.1784    0.7106 O   0  0  0  0  0  0  0  0  0  0  0  0
   -0.7925    1.3272    2.1508 O   0  0  0  0  0  0  0  0  0  0  0  0
   -2.4843   -1.0628    0.5285 H   0  0  0  0  0  0  0  0  0  0  0  0
   -2.2225   -4.7712   -0.0236 H   0  0  0  0  0  0  0  0  0  0  0  0
   -3.6219   -3.5646    0.3141 H   0  0  0  0  0  0  0  0  0  0  0  0
   -2.1688    0.3058    1.2003 H   0  0  0  0  0  0  0  0  0  0  0  0
   -0.0775    4.4113    2.3304 H   0  0  0  0  0  0  0  0  0  0  0  0
   -1.4490    4.2407    1.1172 H   0  0  0  0  0  0  0  0  0  0  0  0
  1  4  2  0
  1  8  1  0
  1  9  1  0
  2  3  2  0
  2 11  1  0
  2 12  1  0
  3  6  2  0
  5  7  1  0
  5 10  1  0
M  END
