C=O.C=C=O.O_1
     RDKit          3D

 12  9  0  0  0  0  0  0  0  0999 V2000
   -1.2195   -2.0841    0.5760 C   0  0  0  0  0  0  0  0  0  0  0  0
   -1.3194    2.0692    1.5704 C   0  0  0  0  0  0  0  0  0  0  0  0
   -0.3631    1.1806    1.4374 C   0  0  0  0  0  0  0  0  0  0  0  0
   -2.4028   -2.0845    0.4756 O   0  0  0  0  0  0  0  0  0  0  0  0
   -3.8030    0.4172    0.9617 O   0  0  0  0  0  0  0  0  0  0  0  0
    0.4418    0.3434    1.3039 O   0  0  0  0  0  0  0  0  0  0  0  0
   -3.3500   -0.4346    0.7939 H   0  0  0  0  0  0  0  0  0  0  0  0
   -0.7177   -1.1648    0.8412 H   0  0  0  0  0  0  0  0  0  0  0  0
   -0.6629   -2.9919    0.4040 H   0  0  0  0  0  0  0  0  0  0  0  0
   -4.7462    0.2295    0.8368 H   0  0  0  0  0  0  0  0  0  0  0  0
   -2.3380    1.7746    1.4131 H   0  0  0  0  0  0  0  0  0  0  0  0
   -1.1092    3.0854    1.8323 H   0  0  0  0  0  0  0  0  0  0  0  0
  1  4  2  0
  1  8  1  0
  1  9  1  0
  2  3  2  0
  2 11  1  0
  2 12  1  0
  3  6  2  0
  5  7  1  0
  5 10  1  0
M  END
