CCOC(=O)O_0
     RDKit          3D

 12 11  0  0  0  0  0  0  0  0999 V2000
   -0.3114    0.6827   -0.0710 C   0  0  0  0  0  0  0  0  0  0  0  0
    0.8768   -0.0262   -0.6853 C   0  0  0  0  0  0  0  0  0  0  0  0
   -0.0076    0.0752    2.1091 C   0  0  0  0  0  0  0  0  0  0  0  0
   -0.0619    1.1249    1.2454 O   0  0  0  0  0  0  0  0  0  0  0  0
    0.2148    0.3969    3.4005 O   0  0  0  0  0  0  0  0  0  0  0  0
   -0.1438   -1.0700    1.7259 O   0  0  0  0  0  0  0  0  0  0  0  0
    0.2893    1.3700    3.4773 H   0  0  0  0  0  0  0  0  0  0  0  0
   -1.1947    0.0280   -0.0273 H   0  0  0  0  0  0  0  0  0  0  0  0
   -0.5938    1.5722   -0.6515 H   0  0  0  0  0  0  0  0  0  0  0  0
    1.1301   -0.9107   -0.0960 H   0  0  0  0  0  0  0  0  0  0  0  0
    1.7528    0.6242   -0.6893 H   0  0  0  0  0  0  0  0  0  0  0  0
    0.6819   -0.3467   -1.7109 H   0  0  0  0  0  0  0  0  0  0  0  0
  1  2  1  0
  1  4  1  0
  1  8  1  0
  1  9  1  0
  2 10  1  0
  2 11  1  0
  2 12  1  0
  3  4  1  0
  3  5  1  0
  3  6  2  0
  5  7  1  0
M  END
