CCOC(=O)O_1
     RDKit          3D

 12 11  0  0  0  0  0  0  0  0999 V2000
   -0.0425    0.3003    0.0614 C   0  0  0  0  0  0  0  0  0  0  0  0
    1.0331    0.1352   -0.9892 C   0  0  0  0  0  0  0  0  0  0  0  0
   -0.5056    0.4393    2.2764 C   0  0  0  0  0  0  0  0  0  0  0  0
    0.4907    0.2887    1.3647 O   0  0  0  0  0  0  0  0  0  0  0  0
   -0.1173    0.4441    3.5689 O   0  0  0  0  0  0  0  0  0  0  0  0
   -1.6650    0.5605    1.9320 O   0  0  0  0  0  0  0  0  0  0  0  0
    0.8542    0.3329    3.6107 H   0  0  0  0  0  0  0  0  0  0  0  0
   -0.7898   -0.5058    0.0134 H   0  0  0  0  0  0  0  0  0  0  0  0
   -0.5862    1.2499   -0.0542 H   0  0  0  0  0  0  0  0  0  0  0  0
    1.7688    0.9374   -0.9110 H   0  0  0  0  0  0  0  0  0  0  0  0
    0.6252    0.1435   -2.0022 H   0  0  0  0  0  0  0  0  0  0  0  0
    1.5668   -0.8056   -0.8440 H   0  0  0  0  0  0  0  0  0  0  0  0
  1  2  1  0
  1  4  1  0
  1  8  1  0
  1  9  1  0
  2 10  1  0
  2 11  1  0
  2 12  1  0
  3  4  1  0
  3  5  1  0
  3  6  2  0
  5  7  1  0
M  END
