OCCO.[C-]#[O+]_4
     RDKit          3D

 12 10  0  0  0  0  0  0  0  0999 V2000
    0.7705    1.0818    0.6212 C   0  0  0  0  0  0  0  0  0  0  0  0
    0.7031    0.0095   -0.4626 C   0  0  0  0  0  0  0  0  0  0  0  0
   -1.2467    0.5646    1.5366 C   0  0  0  0  0  0  0  0  0  0  0  0
    0.0695    0.7239    1.7919 O   0  0  0  0  0  0  0  0  0  0  0  0
    1.5260    0.2790   -1.5716 O   0  0  0  0  0  0  0  0  0  0  0  0
   -1.8081    0.6421    0.4748 O   0  0  0  0  0  0  0  0  0  0  0  0
    2.4675    0.3508   -1.3018 H   0  0  0  0  0  0  0  0  0  0  0  0
    0.3528    2.0309    0.2588 H   0  0  0  0  0  0  0  0  0  0  0  0
    1.8096    1.2702    0.9186 H   0  0  0  0  0  0  0  0  0  0  0  0
   -1.8576    0.3227    2.3944 H   0  0  0  0  0  0  0  0  0  0  0  0
    0.9614   -0.9765   -0.0546 H   0  0  0  0  0  0  0  0  0  0  0  0
   -0.3254   -0.0590   -0.8439 H   0  0  0  0  0  0  0  0  0  0  0  0
  1  2  1  0
  1  4  1  0
  1  8  1  0
  1  9  1  0
  2  5  1  0
  2 11  1  0
  2 12  1  0
  3  6  3  0
  4 10  1  0
  5  7  1  0
M  END
