OCCO.[C-]#[O+]_1
     RDKit          3D

 12 10  0  0  0  0  0  0  0  0999 V2000
   -0.4072    0.4274   -0.3110 C   0  0  0  0  0  0  0  0  0  0  0  0
    1.0716    0.6318   -0.5950 C   0  0  0  0  0  0  0  0  0  0  0  0
   -0.3287    0.8572    1.8974 C   0  0  0  0  0  0  0  0  0  0  0  0
   -0.5734   -0.1001    0.9775 O   0  0  0  0  0  0  0  0  0  0  0  0
    1.7660   -0.5559   -0.3459 O   0  0  0  0  0  0  0  0  0  0  0  0
    0.0249    1.9904    1.6952 O   0  0  0  0  0  0  0  0  0  0  0  0
    1.3990   -0.9711    0.4675 H   0  0  0  0  0  0  0  0  0  0  0  0
   -0.8423   -0.3004   -1.0085 H   0  0  0  0  0  0  0  0  0  0  0  0
   -0.9827    1.3619   -0.3769 H   0  0  0  0  0  0  0  0  0  0  0  0
   -0.4590    0.5595    2.9278 H   0  0  0  0  0  0  0  0  0  0  0  0
    1.2667    0.9322   -1.6328 H   0  0  0  0  0  0  0  0  0  0  0  0
    1.4876    1.4069    0.0664 H   0  0  0  0  0  0  0  0  0  0  0  0
  1  2  1  0
  1  4  1  0
  1  8  1  0
  1  9  1  0
  2  5  1  0
  2 11  1  0
  2 12  1  0
  3  6  3  0
  4 10  1  0
  5  7  1  0
M  END
