OCCO.[C-]#[O+]_7
     RDKit          3D

 12 10  0  0  0  0  0  0  0  0999 V2000
   -0.4767    0.5061   -0.2897 C   0  0  0  0  0  0  0  0  0  0  0  0
    1.0410    0.5441   -0.4190 C   0  0  0  0  0  0  0  0  0  0  0  0
   -0.5515    0.8228    1.9424 C   0  0  0  0  0  0  0  0  0  0  0  0
   -0.8805   -0.0241    0.9441 O   0  0  0  0  0  0  0  0  0  0  0  0
    1.5716   -0.7558   -0.4509 O   0  0  0  0  0  0  0  0  0  0  0  0
    0.0119    1.8829    1.8493 O   0  0  0  0  0  0  0  0  0  0  0  0
    2.5545   -0.7502   -0.4245 H   0  0  0  0  0  0  0  0  0  0  0  0
   -0.9092   -0.1389   -1.0661 H   0  0  0  0  0  0  0  0  0  0  0  0
   -0.9242    1.5068   -0.3778 H   0  0  0  0  0  0  0  0  0  0  0  0
   -0.8270    0.4990    2.9360 H   0  0  0  0  0  0  0  0  0  0  0  0
    1.3506    1.0737   -1.3303 H   0  0  0  0  0  0  0  0  0  0  0  0
    1.4621    1.0734    0.4483 H   0  0  0  0  0  0  0  0  0  0  0  0
  1  2  1  0
  1  4  1  0
  1  8  1  0
  1  9  1  0
  2  5  1  0
  2 11  1  0
  2 12  1  0
  3  6  3  0
  4 10  1  0
  5  7  1  0
M  END
