OOC/C=C\O
     RDKit          3D

 12 11  0  0  0  0  0  0  0  0999 V2000
    0.1563   -0.2965    1.0148 C   0  0  0  0  0  0  0  0  0  0  0  0
   -0.3536    0.9552    0.3678 C   0  0  0  0  0  0  0  0  0  0  0  0
    0.3790    1.6633   -0.4924 C   0  0  0  0  0  0  0  0  0  0  0  0
    1.2370    0.0154    1.8558 O   0  0  0  0  0  0  0  0  0  0  0  0
    1.6381   -1.1305    2.3743 O   0  0  0  0  0  0  0  0  0  0  0  0
    1.6710    1.2714   -0.8298 O   0  0  0  0  0  0  0  0  0  0  0  0
    2.5035   -1.3217    1.9291 H   0  0  0  0  0  0  0  0  0  0  0  0
    0.4682   -1.0162    0.2240 H   0  0  0  0  0  0  0  0  0  0  0  0
   -0.6679   -0.7501    1.6097 H   0  0  0  0  0  0  0  0  0  0  0  0
   -0.0383    2.5582   -0.9375 H   0  0  0  0  0  0  0  0  0  0  0  0
    2.2170    1.8176   -1.4846 H   0  0  0  0  0  0  0  0  0  0  0  0
   -1.3590    1.2872    0.5965 H   0  0  0  0  0  0  0  0  0  0  0  0
  1  2  1  0
  1  4  1  0
  1  8  1  0
  1  9  1  0
  2  3  2  0
  2 12  1  0
  3  6  1  0
  3 10  1  0
  4  5  1  0
  5  7  1  0
  6 11  1  0
M  END
