OOC/C=C\O_2
     RDKit          3D

 12 11  0  0  0  0  0  0  0  0999 V2000
   -0.0144    0.0311    1.4640 C   0  0  0  0  0  0  0  0  0  0  0  0
   -0.2882    0.5648    0.1111 C   0  0  0  0  0  0  0  0  0  0  0  0
    0.5953    1.3238   -0.5351 C   0  0  0  0  0  0  0  0  0  0  0  0
    1.3499   -0.1847    1.6907 O   0  0  0  0  0  0  0  0  0  0  0  0
    1.8882   -1.0877    0.6804 O   0  0  0  0  0  0  0  0  0  0  0  0
    1.8177    1.6947   -0.0619 O   0  0  0  0  0  0  0  0  0  0  0  0
    2.3186   -0.4964    0.0347 H   0  0  0  0  0  0  0  0  0  0  0  0
   -0.5034   -0.9397    1.6167 H   0  0  0  0  0  0  0  0  0  0  0  0
   -0.3708    0.7188    2.2408 H   0  0  0  0  0  0  0  0  0  0  0  0
    0.3717    1.6996   -1.5256 H   0  0  0  0  0  0  0  0  0  0  0  0
    1.9218    1.3827    0.8647 H   0  0  0  0  0  0  0  0  0  0  0  0
   -1.2352    0.3463   -0.3527 H   0  0  0  0  0  0  0  0  0  0  0  0
  1  2  1  0
  1  4  1  0
  1  8  1  0
  1  9  1  0
  2  3  2  0
  2 12  1  0
  3  6  1  0
  3 10  1  0
  4  5  1  0
  5  7  1  0
  6 11  1  0
M  END
