OCOC#C.O_9
     RDKit          3D

 12 10  0  0  0  0  0  0  0  0999 V2000
   -0.0312    0.0571    1.3447 C   0  0  0  0  0  0  0  0  0  0  0  0
   -0.4459    3.3718    1.1729 C   0  0  0  0  0  0  0  0  0  0  0  0
   -0.7108    2.2236    1.4725 C   0  0  0  0  0  0  0  0  0  0  0  0
   -0.3141   -1.2869    1.6309 O   0  0  0  0  0  0  0  0  0  0  0  0
   -3.4242   -0.6664    1.5724 O   0  0  0  0  0  0  0  0  0  0  0  0
   -1.0009    0.9778    1.7951 O   0  0  0  0  0  0  0  0  0  0  0  0
   -2.6374   -0.0914    1.6559 H   0  0  0  0  0  0  0  0  0  0  0  0
    0.0592    0.1534    0.2552 H   0  0  0  0  0  0  0  0  0  0  0  0
    0.9345    0.3223    1.7948 H   0  0  0  0  0  0  0  0  0  0  0  0
   -3.1363   -1.4128    1.0207 H   0  0  0  0  0  0  0  0  0  0  0  0
   -0.6178   -1.3631    2.5592 H   0  0  0  0  0  0  0  0  0  0  0  0
   -0.2213    4.3804    0.9130 H   0  0  0  0  0  0  0  0  0  0  0  0
  1  4  1  0
  1  6  1  0
  1  8  1  0
  1  9  1  0
  2  3  3  0
  2 12  1  0
  3  6  1  0
  4 11  1  0
  5  7  1  0
  5 10  1  0
M  END
