OCOC#C.O_12
     RDKit          3D

 12 10  0  0  0  0  0  0  0  0999 V2000
   -0.0120   -0.2337    1.2625 C   0  0  0  0  0  0  0  0  0  0  0  0
   -0.6734    3.0074    1.2659 C   0  0  0  0  0  0  0  0  0  0  0  0
   -0.6170    1.8836    0.8040 C   0  0  0  0  0  0  0  0  0  0  0  0
   -0.6582   -0.2496    2.5113 O   0  0  0  0  0  0  0  0  0  0  0  0
   -3.3417   -0.1303    1.1126 O   0  0  0  0  0  0  0  0  0  0  0  0
   -0.5676    0.6593    0.3271 O   0  0  0  0  0  0  0  0  0  0  0  0
   -2.4455    0.1319    0.8250 H   0  0  0  0  0  0  0  0  0  0  0  0
   -0.0582   -1.2364    0.8157 H   0  0  0  0  0  0  0  0  0  0  0  0
    1.0426    0.0411    1.3980 H   0  0  0  0  0  0  0  0  0  0  0  0
   -3.2488   -0.3122    2.0623 H   0  0  0  0  0  0  0  0  0  0  0  0
   -0.2354   -0.8859    3.1304 H   0  0  0  0  0  0  0  0  0  0  0  0
   -0.7312    3.9905    1.6725 H   0  0  0  0  0  0  0  0  0  0  0  0
  1  4  1  0
  1  6  1  0
  1  8  1  0
  1  9  1  0
  2  3  3  0
  2 12  1  0
  3  6  1  0
  4 11  1  0
  5  7  1  0
  5 10  1  0
M  END
