OCOC#C.O_13
     RDKit          3D

 12 10  0  0  0  0  0  0  0  0999 V2000
   -0.1397    0.0087    1.2376 C   0  0  0  0  0  0  0  0  0  0  0  0
   -0.5105    3.3241    1.0587 C   0  0  0  0  0  0  0  0  0  0  0  0
   -0.6579    2.2041    1.5084 C   0  0  0  0  0  0  0  0  0  0  0  0
   -0.3337   -1.3103    1.6752 O   0  0  0  0  0  0  0  0  0  0  0  0
   -3.2872   -0.8386    1.5313 O   0  0  0  0  0  0  0  0  0  0  0  0
   -0.8196    0.9875    1.9927 O   0  0  0  0  0  0  0  0  0  0  0  0
   -3.3646    0.0703    1.8659 H   0  0  0  0  0  0  0  0  0  0  0  0
   -0.4897    0.0685    0.1988 H   0  0  0  0  0  0  0  0  0  0  0  0
    0.9337    0.2394    1.2511 H   0  0  0  0  0  0  0  0  0  0  0  0
   -2.3304   -1.0347    1.5615 H   0  0  0  0  0  0  0  0  0  0  0  0
   -0.1609   -1.3605    2.6384 H   0  0  0  0  0  0  0  0  0  0  0  0
   -0.3859    4.3074    0.6678 H   0  0  0  0  0  0  0  0  0  0  0  0
  1  4  1  0
  1  6  1  0
  1  8  1  0
  1  9  1  0
  2  3  3  0
  2 12  1  0
  3  6  1  0
  4 11  1  0
  5  7  1  0
  5 10  1  0
M  END
