OCOC#C.O
     RDKit          3D

 12 10  0  0  0  0  0  0  0  0999 V2000
   -0.0559   -0.4264    1.6334 C   0  0  0  0  0  0  0  0  0  0  0  0
   -1.0479    2.9167    1.1436 C   0  0  0  0  0  0  0  0  0  0  0  0
   -0.3375    1.9696    1.3705 C   0  0  0  0  0  0  0  0  0  0  0  0
    0.9680   -1.3390    1.9099 O   0  0  0  0  0  0  0  0  0  0  0  0
   -3.5373    0.1275    0.8590 O   0  0  0  0  0  0  0  0  0  0  0  0
    0.4688    0.8947    1.6281 O   0  0  0  0  0  0  0  0  0  0  0  0
   -3.2777    0.6278    1.6732 H   0  0  0  0  0  0  0  0  0  0  0  0
   -0.8626   -0.5152    2.3959 H   0  0  0  0  0  0  0  0  0  0  0  0
   -0.4832   -0.6612    0.6352 H   0  0  0  0  0  0  0  0  0  0  0  0
   -2.9543    0.4927    0.1468 H   0  0  0  0  0  0  0  0  0  0  0  0
    1.2457   -1.1688    2.8475 H   0  0  0  0  0  0  0  0  0  0  0  0
   -1.6725    3.7474    0.9442 H   0  0  0  0  0  0  0  0  0  0  0  0
  1  4  1  0
  1  6  1  0
  1  8  1  0
  1  9  1  0
  2  3  3  0
  2 12  1  0
  3  6  1  0
  4 11  1  0
  5  7  1  0
  5 10  1  0
M  END
