OCOC#C.O_3
     RDKit          3D

 12 10  0  0  0  0  0  0  0  0999 V2000
    0.1097    0.0750    1.5467 C   0  0  0  0  0  0  0  0  0  0  0  0
   -0.3920    3.3249    0.9690 C   0  0  0  0  0  0  0  0  0  0  0  0
   -0.6834    2.1883    1.2877 C   0  0  0  0  0  0  0  0  0  0  0  0
   -0.1294   -1.2500    1.9611 O   0  0  0  0  0  0  0  0  0  0  0  0
   -3.0883   -1.0428    1.4835 O   0  0  0  0  0  0  0  0  0  0  0  0
   -0.9963    0.9538    1.6319 O   0  0  0  0  0  0  0  0  0  0  0  0
   -3.9965   -0.7339    1.6272 H   0  0  0  0  0  0  0  0  0  0  0  0
    0.4495    0.0563    0.5026 H   0  0  0  0  0  0  0  0  0  0  0  0
    0.9225    0.4769    2.1649 H   0  0  0  0  0  0  0  0  0  0  0  0
   -2.5262   -0.2421    1.5160 H   0  0  0  0  0  0  0  0  0  0  0  0
   -1.0761   -1.4625    1.8056 H   0  0  0  0  0  0  0  0  0  0  0  0
   -0.1398    4.3220    0.6911 H   0  0  0  0  0  0  0  0  0  0  0  0
  1  4  1  0
  1  6  1  0
  1  8  1  0
  1  9  1  0
  2  3  3  0
  2 12  1  0
  3  6  1  0
  4 11  1  0
  5  7  1  0
  5 10  1  0
M  END
