OCOC#C.O_14
     RDKit          3D

 12 10  0  0  0  0  0  0  0  0999 V2000
   -0.2039    0.0763    1.2080 C   0  0  0  0  0  0  0  0  0  0  0  0
   -0.2884    3.4130    1.0795 C   0  0  0  0  0  0  0  0  0  0  0  0
   -0.4458    2.3074    1.5603 C   0  0  0  0  0  0  0  0  0  0  0  0
   -0.4333   -1.2236    1.6835 O   0  0  0  0  0  0  0  0  0  0  0  0
   -3.3892   -1.0746    1.4976 O   0  0  0  0  0  0  0  0  0  0  0  0
   -0.6178    1.1061    2.0783 O   0  0  0  0  0  0  0  0  0  0  0  0
   -3.6092   -0.2702    1.9969 H   0  0  0  0  0  0  0  0  0  0  0  0
   -0.7447    0.1853    0.2588 H   0  0  0  0  0  0  0  0  0  0  0  0
    0.8683    0.2007    1.0066 H   0  0  0  0  0  0  0  0  0  0  0  0
   -2.4160   -1.1514    1.5490 H   0  0  0  0  0  0  0  0  0  0  0  0
   -0.1123   -1.2874    2.6067 H   0  0  0  0  0  0  0  0  0  0  0  0
   -0.1542    4.3842    0.6620 H   0  0  0  0  0  0  0  0  0  0  0  0
  1  4  1  0
  1  6  1  0
  1  8  1  0
  1  9  1  0
  2  3  3  0
  2 12  1  0
  3  6  1  0
  4 11  1  0
  5  7  1  0
  5 10  1  0
M  END
