OCOC#C.O_2
     RDKit          3D

 12 10  0  0  0  0  0  0  0  0999 V2000
    0.3447   -0.2573    1.4239 C   0  0  0  0  0  0  0  0  0  0  0  0
   -0.4089    2.9530    1.2469 C   0  0  0  0  0  0  0  0  0  0  0  0
   -0.2597    1.8223    0.8243 C   0  0  0  0  0  0  0  0  0  0  0  0
   -0.4571   -0.2566    2.5726 O   0  0  0  0  0  0  0  0  0  0  0  0
   -3.1953   -0.2487    1.6052 O   0  0  0  0  0  0  0  0  0  0  0  0
   -0.1010    0.5900    0.3929 O   0  0  0  0  0  0  0  0  0  0  0  0
   -4.1330   -0.4103    1.7924 H   0  0  0  0  0  0  0  0  0  0  0  0
    0.3986   -1.2781    1.0229 H   0  0  0  0  0  0  0  0  0  0  0  0
    1.3585    0.0472    1.7129 H   0  0  0  0  0  0  0  0  0  0  0  0
   -3.1515    0.0278    0.6759 H   0  0  0  0  0  0  0  0  0  0  0  0
   -1.4031   -0.2645    2.2942 H   0  0  0  0  0  0  0  0  0  0  0  0
   -0.5385    3.9412    1.6231 H   0  0  0  0  0  0  0  0  0  0  0  0
  1  4  1  0
  1  6  1  0
  1  8  1  0
  1  9  1  0
  2  3  3  0
  2 12  1  0
  3  6  1  0
  4 11  1  0
  5  7  1  0
  5 10  1  0
M  END
