OCOC#C.O_0
     RDKit          3D

 12 10  0  0  0  0  0  0  0  0999 V2000
    0.1721   -0.2517    1.3347 C   0  0  0  0  0  0  0  0  0  0  0  0
   -0.5290    2.9725    1.3203 C   0  0  0  0  0  0  0  0  0  0  0  0
   -0.5563    1.8286    0.9077 C   0  0  0  0  0  0  0  0  0  0  0  0
   -0.2730   -0.3042    2.6643 O   0  0  0  0  0  0  0  0  0  0  0  0
   -3.1202   -0.3091    1.6645 O   0  0  0  0  0  0  0  0  0  0  0  0
   -0.5852    0.5823    0.4871 O   0  0  0  0  0  0  0  0  0  0  0  0
   -2.3755    0.0318    1.1289 H   0  0  0  0  0  0  0  0  0  0  0  0
    0.1599   -1.2652    0.9114 H   0  0  0  0  0  0  0  0  0  0  0  0
    1.2113    0.1012    1.3353 H   0  0  0  0  0  0  0  0  0  0  0  0
   -3.8949   -0.2918    1.0813 H   0  0  0  0  0  0  0  0  0  0  0  0
   -1.2512   -0.4011    2.6646 H   0  0  0  0  0  0  0  0  0  0  0  0
   -0.5044    3.9724    1.6873 H   0  0  0  0  0  0  0  0  0  0  0  0
  1  4  1  0
  1  6  1  0
  1  8  1  0
  1  9  1  0
  2  3  3  0
  2 12  1  0
  3  6  1  0
  4 11  1  0
  5  7  1  0
  5 10  1  0
M  END
