OCOC#C.O_7
     RDKit          3D

 12 10  0  0  0  0  0  0  0  0999 V2000
   -0.3429   -0.2993    2.1742 C   0  0  0  0  0  0  0  0  0  0  0  0
   -0.3636    2.9256    1.3281 C   0  0  0  0  0  0  0  0  0  0  0  0
   -0.7537    1.9107    1.8724 C   0  0  0  0  0  0  0  0  0  0  0  0
   -0.1808   -0.6023    0.8154 O   0  0  0  0  0  0  0  0  0  0  0  0
   -3.1327   -0.3824    0.3890 O   0  0  0  0  0  0  0  0  0  0  0  0
   -1.1732    0.8042    2.4471 O   0  0  0  0  0  0  0  0  0  0  0  0
   -3.4247    0.1083    1.1749 H   0  0  0  0  0  0  0  0  0  0  0  0
    0.6383   -0.1263    2.6362 H   0  0  0  0  0  0  0  0  0  0  0  0
   -0.7926   -1.1763    2.6578 H   0  0  0  0  0  0  0  0  0  0  0  0
   -2.1681   -0.4891    0.5048 H   0  0  0  0  0  0  0  0  0  0  0  0
    0.1789    0.1724    0.3334 H   0  0  0  0  0  0  0  0  0  0  0  0
   -0.0312    3.8202    0.8542 H   0  0  0  0  0  0  0  0  0  0  0  0
  1  4  1  0
  1  6  1  0
  1  8  1  0
  1  9  1  0
  2  3  3  0
  2 12  1  0
  3  6  1  0
  4 11  1  0
  5  7  1  0
  5 10  1  0
M  END
