OCOC#C.O_16
     RDKit          3D

 12 10  0  0  0  0  0  0  0  0999 V2000
    1.1540   -0.2026    2.5931 C   0  0  0  0  0  0  0  0  0  0  0  0
   -1.3706    1.3097    1.0901 C   0  0  0  0  0  0  0  0  0  0  0  0
   -0.2192    1.1657    1.4543 C   0  0  0  0  0  0  0  0  0  0  0  0
    0.6977   -1.3568    1.9433 O   0  0  0  0  0  0  0  0  0  0  0  0
   -4.3825    1.6657    0.1427 O   0  0  0  0  0  0  0  0  0  0  0  0
    1.0211    0.9851    1.8519 O   0  0  0  0  0  0  0  0  0  0  0  0
   -5.0800    0.9966    0.2335 H   0  0  0  0  0  0  0  0  0  0  0  0
    2.2153   -0.3260    2.8466 H   0  0  0  0  0  0  0  0  0  0  0  0
    0.5933   -0.0929    3.5299 H   0  0  0  0  0  0  0  0  0  0  0  0
   -4.8017    2.4312   -0.2822 H   0  0  0  0  0  0  0  0  0  0  0  0
    1.0067   -1.3416    1.0131 H   0  0  0  0  0  0  0  0  0  0  0  0
   -2.3805    1.4316    0.7712 H   0  0  0  0  0  0  0  0  0  0  0  0
  1  4  1  0
  1  6  1  0
  1  8  1  0
  1  9  1  0
  2  3  3  0
  2 12  1  0
  3  6  1  0
  4 11  1  0
  5  7  1  0
  5 10  1  0
M  END
