OCOC#C.O_1
     RDKit          3D

 12 10  0  0  0  0  0  0  0  0999 V2000
   -0.1048   -0.2192    2.4110 C   0  0  0  0  0  0  0  0  0  0  0  0
   -0.8293    2.7375    1.1545 C   0  0  0  0  0  0  0  0  0  0  0  0
   -0.1405    1.9238    1.7401 C   0  0  0  0  0  0  0  0  0  0  0  0
   -0.4972   -0.7211    1.1631 O   0  0  0  0  0  0  0  0  0  0  0  0
   -3.0632    0.4588    0.3812 O   0  0  0  0  0  0  0  0  0  0  0  0
    0.5740    1.0107    2.3605 O   0  0  0  0  0  0  0  0  0  0  0  0
   -2.2040    0.0742    0.6469 H   0  0  0  0  0  0  0  0  0  0  0  0
    0.5496   -0.9483    2.9078 H   0  0  0  0  0  0  0  0  0  0  0  0
   -1.0025   -0.0944    3.0301 H   0  0  0  0  0  0  0  0  0  0  0  0
   -3.6429   -0.2997    0.2010 H   0  0  0  0  0  0  0  0  0  0  0  0
    0.2697   -0.6833    0.5548 H   0  0  0  0  0  0  0  0  0  0  0  0
   -1.4552    3.4269    0.6363 H   0  0  0  0  0  0  0  0  0  0  0  0
  1  4  1  0
  1  6  1  0
  1  8  1  0
  1  9  1  0
  2  3  3  0
  2 12  1  0
  3  6  1  0
  4 11  1  0
  5  7  1  0
  5 10  1  0
M  END
