OCOC#C.O_8
     RDKit          3D

 12 10  0  0  0  0  0  0  0  0999 V2000
   -0.3448    0.0724    1.2860 C   0  0  0  0  0  0  0  0  0  0  0  0
    0.7082    3.1977    1.7625 C   0  0  0  0  0  0  0  0  0  0  0  0
    0.6598    1.9961    1.9424 C   0  0  0  0  0  0  0  0  0  0  0  0
   -1.6741    0.4960    1.4390 O   0  0  0  0  0  0  0  0  0  0  0  0
   -3.3921   -1.8203    0.9277 O   0  0  0  0  0  0  0  0  0  0  0  0
    0.5924    0.6956    2.1311 O   0  0  0  0  0  0  0  0  0  0  0  0
   -2.8286   -1.0372    1.0898 H   0  0  0  0  0  0  0  0  0  0  0  0
   -0.0322    0.2300    0.2448 H   0  0  0  0  0  0  0  0  0  0  0  0
   -0.3094   -1.0057    1.4901 H   0  0  0  0  0  0  0  0  0  0  0  0
   -3.9889   -1.8753    1.6927 H   0  0  0  0  0  0  0  0  0  0  0  0
   -1.6962    1.4655    1.5722 H   0  0  0  0  0  0  0  0  0  0  0  0
    0.7594    4.2508    1.6091 H   0  0  0  0  0  0  0  0  0  0  0  0
  1  4  1  0
  1  6  1  0
  1  8  1  0
  1  9  1  0
  2  3  3  0
  2 12  1  0
  3  6  1  0
  4 11  1  0
  5  7  1  0
  5 10  1  0
M  END
