OCOC#C.O_10
     RDKit          3D

 12 10  0  0  0  0  0  0  0  0999 V2000
   -0.1098   -0.1768    2.1985 C   0  0  0  0  0  0  0  0  0  0  0  0
   -0.8274    2.8593    1.1050 C   0  0  0  0  0  0  0  0  0  0  0  0
   -0.8966    1.9015    1.8515 C   0  0  0  0  0  0  0  0  0  0  0  0
   -0.2554   -0.5369    0.8469 O   0  0  0  0  0  0  0  0  0  0  0  0
   -3.1188    0.0263    0.4444 O   0  0  0  0  0  0  0  0  0  0  0  0
   -0.9732    0.8464    2.6321 O   0  0  0  0  0  0  0  0  0  0  0  0
   -3.4130    0.3486    1.3127 H   0  0  0  0  0  0  0  0  0  0  0  0
    0.9197    0.1617    2.3780 H   0  0  0  0  0  0  0  0  0  0  0  0
   -0.3058   -1.0525    2.8317 H   0  0  0  0  0  0  0  0  0  0  0  0
   -2.1648   -0.1567    0.5555 H   0  0  0  0  0  0  0  0  0  0  0  0
    0.3738   -1.2465    0.5892 H   0  0  0  0  0  0  0  0  0  0  0  0
   -0.7751    3.6916    0.4419 H   0  0  0  0  0  0  0  0  0  0  0  0
  1  4  1  0
  1  6  1  0
  1  8  1  0
  1  9  1  0
  2  3  3  0
  2 12  1  0
  3  6  1  0
  4 11  1  0
  5  7  1  0
  5 10  1  0
M  END
