OCOOC=C
     RDKit          3D

 12 11  0  0  0  0  0  0  0  0999 V2000
   -0.8043   -1.0900    1.2819 C   0  0  0  0  0  0  0  0  0  0  0  0
    1.6620    2.2440   -0.5632 C   0  0  0  0  0  0  0  0  0  0  0  0
    1.3393    1.6111    0.5568 C   0  0  0  0  0  0  0  0  0  0  0  0
    0.1074   -0.0899    1.6563 O   0  0  0  0  0  0  0  0  0  0  0  0
   -0.1594   -2.0841    0.5329 O   0  0  0  0  0  0  0  0  0  0  0  0
    0.4364    0.5539    0.5253 O   0  0  0  0  0  0  0  0  0  0  0  0
    0.4844   -2.5226    1.1481 H   0  0  0  0  0  0  0  0  0  0  0  0
   -1.2475   -1.5371    2.1986 H   0  0  0  0  0  0  0  0  0  0  0  0
   -1.6400   -0.6590    0.6865 H   0  0  0  0  0  0  0  0  0  0  0  0
    1.7806    1.9193    1.4967 H   0  0  0  0  0  0  0  0  0  0  0  0
    2.3646    3.0668   -0.5400 H   0  0  0  0  0  0  0  0  0  0  0  0
    1.2274    1.9447   -1.5084 H   0  0  0  0  0  0  0  0  0  0  0  0
  1  4  1  0
  1  5  1  0
  1  8  1  0
  1  9  1  0
  2  3  2  0
  2 11  1  0
  2 12  1  0
  3  6  1  0
  3 10  1  0
  4  6  1  0
  5  7  1  0
M  END
