OCOOC=C_2
     RDKit          3D

 12 11  0  0  0  0  0  0  0  0999 V2000
   -0.6846   -1.0755    1.5139 C   0  0  0  0  0  0  0  0  0  0  0  0
    1.7990    1.8879   -0.4770 C   0  0  0  0  0  0  0  0  0  0  0  0
    1.0567    1.3504    0.4776 C   0  0  0  0  0  0  0  0  0  0  0  0
   -0.7137    0.3086    1.5338 O   0  0  0  0  0  0  0  0  0  0  0  0
    0.4134   -1.5627    0.8187 O   0  0  0  0  0  0  0  0  0  0  0  0
   -0.1727    0.8004    0.2678 O   0  0  0  0  0  0  0  0  0  0  0  0
    0.5237   -1.0181    0.0092 H   0  0  0  0  0  0  0  0  0  0  0  0
   -0.6556   -1.4492    2.5445 H   0  0  0  0  0  0  0  0  0  0  0  0
   -1.6047   -1.4293    1.0304 H   0  0  0  0  0  0  0  0  0  0  0  0
    1.3972    1.3215    1.5033 H   0  0  0  0  0  0  0  0  0  0  0  0
    2.7598    2.3123   -0.2681 H   0  0  0  0  0  0  0  0  0  0  0  0
    1.4323    1.9108   -1.4827 H   0  0  0  0  0  0  0  0  0  0  0  0
  1  4  1  0
  1  5  1  0
  1  8  1  0
  1  9  1  0
  2  3  2  0
  2 11  1  0
  2 12  1  0
  3  6  1  0
  3 10  1  0
  4  6  1  0
  5  7  1  0
M  END
