OCOOC=C_3
     RDKit          3D

 12 11  0  0  0  0  0  0  0  0999 V2000
   -0.5598   -1.0146    1.5752 C   0  0  0  0  0  0  0  0  0  0  0  0
    1.9265    1.8939   -0.3268 C   0  0  0  0  0  0  0  0  0  0  0  0
    0.9041    1.4372    0.3784 C   0  0  0  0  0  0  0  0  0  0  0  0
   -0.9441    0.1677    0.9668 O   0  0  0  0  0  0  0  0  0  0  0  0
   -0.0956   -1.9257    0.6292 O   0  0  0  0  0  0  0  0  0  0  0  0
    0.0390    0.4826   -0.0697 O   0  0  0  0  0  0  0  0  0  0  0  0
    0.0666   -1.4202   -0.2008 H   0  0  0  0  0  0  0  0  0  0  0  0
    0.2452   -0.7943    2.2874 H   0  0  0  0  0  0  0  0  0  0  0  0
   -1.4157   -1.4410    2.1134 H   0  0  0  0  0  0  0  0  0  0  0  0
    0.6970    1.8145    1.3698 H   0  0  0  0  0  0  0  0  0  0  0  0
    2.5821    2.6481    0.0585 H   0  0  0  0  0  0  0  0  0  0  0  0
    2.1057    1.5089   -1.3099 H   0  0  0  0  0  0  0  0  0  0  0  0
  1  4  1  0
  1  5  1  0
  1  8  1  0
  1  9  1  0
  2  3  2  0
  2 11  1  0
  2 12  1  0
  3  6  1  0
  3 10  1  0
  4  6  1  0
  5  7  1  0
M  END
