OCC(=O)CO_5
     RDKit          3D

 12 11  0  0  0  0  0  0  0  0999 V2000
   -1.2553   -0.0248    1.1515 C   0  0  0  0  0  0  0  0  0  0  0  0
    1.1755   -0.4504    0.4225 C   0  0  0  0  0  0  0  0  0  0  0  0
    0.2132    0.0969    1.4310 C   0  0  0  0  0  0  0  0  0  0  0  0
   -1.5320   -0.2746   -0.2075 O   0  0  0  0  0  0  0  0  0  0  0  0
    1.4410    0.5007   -0.5741 O   0  0  0  0  0  0  0  0  0  0  0  0
    0.6194    0.6517    2.4146 O   0  0  0  0  0  0  0  0  0  0  0  0
    1.7669    1.3277   -0.1601 H   0  0  0  0  0  0  0  0  0  0  0  0
   -1.6890   -0.8459    1.7344 H   0  0  0  0  0  0  0  0  0  0  0  0
   -1.7707    0.8974    1.4490 H   0  0  0  0  0  0  0  0  0  0  0  0
   -0.9826    0.3049   -0.7769 H   0  0  0  0  0  0  0  0  0  0  0  0
    2.1175   -0.7379    0.9070 H   0  0  0  0  0  0  0  0  0  0  0  0
    0.7628   -1.3398   -0.0694 H   0  0  0  0  0  0  0  0  0  0  0  0
  1  3  1  0
  1  4  1  0
  1  8  1  0
  1  9  1  0
  2  3  1  0
  2  5  1  0
  2 11  1  0
  2 12  1  0
  3  6  2  0
  4 10  1  0
  5  7  1  0
M  END
