OCC(=O)CO_2
     RDKit          3D

 12 11  0  0  0  0  0  0  0  0999 V2000
   -1.2566   -0.2005    0.3240 C   0  0  0  0  0  0  0  0  0  0  0  0
    1.3280    0.0382    0.0696 C   0  0  0  0  0  0  0  0  0  0  0  0
    0.1056   -0.0434    0.9297 C   0  0  0  0  0  0  0  0  0  0  0  0
   -2.2456   -0.1975    1.3248 O   0  0  0  0  0  0  0  0  0  0  0  0
    2.2857    0.8624    0.6790 O   0  0  0  0  0  0  0  0  0  0  0  0
    0.2290    0.0065    2.1183 O   0  0  0  0  0  0  0  0  0  0  0  0
    2.1714    0.8069    1.6550 H   0  0  0  0  0  0  0  0  0  0  0  0
   -1.4780    0.6205   -0.3695 H   0  0  0  0  0  0  0  0  0  0  0  0
   -1.3360   -1.1459   -0.2270 H   0  0  0  0  0  0  0  0  0  0  0  0
   -1.8101   -0.1378    2.2053 H   0  0  0  0  0  0  0  0  0  0  0  0
    1.7703   -0.9566   -0.0670 H   0  0  0  0  0  0  0  0  0  0  0  0
    1.1033    0.4531   -0.9203 H   0  0  0  0  0  0  0  0  0  0  0  0
  1  3  1  0
  1  4  1  0
  1  8  1  0
  1  9  1  0
  2  3  1  0
  2  5  1  0
  2 11  1  0
  2 12  1  0
  3  6  2  0
  4 10  1  0
  5  7  1  0
M  END
