OCC(=O)CO_1
     RDKit          3D

 12 11  0  0  0  0  0  0  0  0999 V2000
   -1.2518   -0.2900    0.3668 C   0  0  0  0  0  0  0  0  0  0  0  0
    1.3081    0.1163    0.0269 C   0  0  0  0  0  0  0  0  0  0  0  0
    0.0644    0.2331    0.8530 C   0  0  0  0  0  0  0  0  0  0  0  0
   -2.0480   -0.6726    1.4570 O   0  0  0  0  0  0  0  0  0  0  0  0
    2.4328    0.0383    0.8624 O   0  0  0  0  0  0  0  0  0  0  0  0
    0.1194    0.7772    1.9165 O   0  0  0  0  0  0  0  0  0  0  0  0
    2.2313    0.5039    1.7058 H   0  0  0  0  0  0  0  0  0  0  0  0
   -1.7907    0.4833   -0.1951 H   0  0  0  0  0  0  0  0  0  0  0  0
   -1.1280   -1.1641   -0.2836 H   0  0  0  0  0  0  0  0  0  0  0  0
   -1.7903   -0.1340    2.2395 H   0  0  0  0  0  0  0  0  0  0  0  0
    1.2950   -0.7793   -0.6055 H   0  0  0  0  0  0  0  0  0  0  0  0
    1.4246    0.9937   -0.6217 H   0  0  0  0  0  0  0  0  0  0  0  0
  1  3  1  0
  1  4  1  0
  1  8  1  0
  1  9  1  0
  2  3  1  0
  2  5  1  0
  2 11  1  0
  2 12  1  0
  3  6  2  0
  4 10  1  0
  5  7  1  0
M  END
