OCC(=O)CO_6
     RDKit          3D

 12 11  0  0  0  0  0  0  0  0999 V2000
   -1.2473    0.2288    1.1899 C   0  0  0  0  0  0  0  0  0  0  0  0
    1.2395   -0.2218    0.5460 C   0  0  0  0  0  0  0  0  0  0  0  0
    0.1440   -0.1913    1.5757 C   0  0  0  0  0  0  0  0  0  0  0  0
   -1.6333   -0.2204   -0.0832 O   0  0  0  0  0  0  0  0  0  0  0  0
    0.9010    0.4289   -0.6621 O   0  0  0  0  0  0  0  0  0  0  0  0
    0.3853   -0.4993    2.7120 O   0  0  0  0  0  0  0  0  0  0  0  0
    1.6706    0.4708   -1.2696 H   0  0  0  0  0  0  0  0  0  0  0  0
   -1.9658   -0.1892    1.9062 H   0  0  0  0  0  0  0  0  0  0  0  0
   -1.3421    1.3218    1.2246 H   0  0  0  0  0  0  0  0  0  0  0  0
   -0.9106   -0.0167   -0.7147 H   0  0  0  0  0  0  0  0  0  0  0  0
    2.1293    0.2601    0.9711 H   0  0  0  0  0  0  0  0  0  0  0  0
    1.4962   -1.2658    0.3261 H   0  0  0  0  0  0  0  0  0  0  0  0
  1  3  1  0
  1  4  1  0
  1  8  1  0
  1  9  1  0
  2  3  1  0
  2  5  1  0
  2 11  1  0
  2 12  1  0
  3  6  2  0
  4 10  1  0
  5  7  1  0
M  END
