OCC(=O)CO_3
     RDKit          3D

 12 11  0  0  0  0  0  0  0  0999 V2000
   -0.9342    0.5809    1.0045 C   0  0  0  0  0  0  0  0  0  0  0  0
    1.4581   -0.2678    0.5592 C   0  0  0  0  0  0  0  0  0  0  0  0
    0.2435   -0.2396    1.4417 C   0  0  0  0  0  0  0  0  0  0  0  0
   -1.5423    0.0364   -0.1414 O   0  0  0  0  0  0  0  0  0  0  0  0
    1.2437    0.3329   -0.6995 O   0  0  0  0  0  0  0  0  0  0  0  0
    0.2023   -0.8778    2.4581 O   0  0  0  0  0  0  0  0  0  0  0  0
    0.3045    0.2058   -0.9631 H   0  0  0  0  0  0  0  0  0  0  0  0
   -1.6747    0.6451    1.8124 H   0  0  0  0  0  0  0  0  0  0  0  0
   -0.6215    1.6034    0.7601 H   0  0  0  0  0  0  0  0  0  0  0  0
   -1.8786   -0.8634    0.0555 H   0  0  0  0  0  0  0  0  0  0  0  0
    2.2926    0.2560    1.0404 H   0  0  0  0  0  0  0  0  0  0  0  0
    1.7734   -1.3060    0.3942 H   0  0  0  0  0  0  0  0  0  0  0  0
  1  3  1  0
  1  4  1  0
  1  8  1  0
  1  9  1  0
  2  3  1  0
  2  5  1  0
  2 11  1  0
  2 12  1  0
  3  6  2  0
  4 10  1  0
  5  7  1  0
M  END
