OOCC#C.O_3
     RDKit          3D

 12 10  0  0  0  0  0  0  0  0999 V2000
    0.0214    0.7404    1.2950 C   0  0  0  0  0  0  0  0  0  0  0  0
    0.0219    1.7751    2.2645 C   0  0  0  0  0  0  0  0  0  0  0  0
   -0.0098    2.6562    3.0934 C   0  0  0  0  0  0  0  0  0  0  0  0
   -1.2430    0.1970    1.0034 O   0  0  0  0  0  0  0  0  0  0  0  0
   -1.1260   -0.8051   -0.0504 O   0  0  0  0  0  0  0  0  0  0  0  0
   -3.4633    0.8224   -0.9114 O   0  0  0  0  0  0  0  0  0  0  0  0
   -1.3150   -1.6447    0.4004 H   0  0  0  0  0  0  0  0  0  0  0  0
    0.4214    1.0991    0.3379 H   0  0  0  0  0  0  0  0  0  0  0  0
    0.6526   -0.0978    1.6155 H   0  0  0  0  0  0  0  0  0  0  0  0
   -0.0467    3.4318    3.8239 H   0  0  0  0  0  0  0  0  0  0  0  0
   -2.6959    0.4125   -0.4563 H   0  0  0  0  0  0  0  0  0  0  0  0
   -3.2013    1.7447   -1.0744 H   0  0  0  0  0  0  0  0  0  0  0  0
  1  2  1  0
  1  4  1  0
  1  8  1  0
  1  9  1  0
  2  3  3  0
  3 10  1  0
  4  5  1  0
  5  7  1  0
  6 11  1  0
  6 12  1  0
M  END
