OOCC#C.O_4
     RDKit          3D

 12 10  0  0  0  0  0  0  0  0999 V2000
    0.3234   -0.0136    1.8830 C   0  0  0  0  0  0  0  0  0  0  0  0
   -0.0377    1.3436    2.0594 C   0  0  0  0  0  0  0  0  0  0  0  0
   -0.3810    2.4991    2.1643 C   0  0  0  0  0  0  0  0  0  0  0  0
   -0.5465   -0.7348    1.0468 O   0  0  0  0  0  0  0  0  0  0  0  0
   -0.5662   -0.1397   -0.2804 O   0  0  0  0  0  0  0  0  0  0  0  0
   -3.0727    1.3035   -0.5125 O   0  0  0  0  0  0  0  0  0  0  0  0
   -1.4209    0.3373   -0.3129 H   0  0  0  0  0  0  0  0  0  0  0  0
    1.3167   -0.0921    1.4233 H   0  0  0  0  0  0  0  0  0  0  0  0
    0.3587   -0.5430    2.8433 H   0  0  0  0  0  0  0  0  0  0  0  0
   -0.6879    3.5164    2.2482 H   0  0  0  0  0  0  0  0  0  0  0  0
   -3.8323    1.0389    0.0299 H   0  0  0  0  0  0  0  0  0  0  0  0
   -3.4374    1.8160   -1.2508 H   0  0  0  0  0  0  0  0  0  0  0  0
  1  2  1  0
  1  4  1  0
  1  8  1  0
  1  9  1  0
  2  3  3  0
  3 10  1  0
  4  5  1  0
  5  7  1  0
  6 11  1  0
  6 12  1  0
M  END
