OOCC#C.O_7
     RDKit          3D

 12 10  0  0  0  0  0  0  0  0999 V2000
    0.1735    0.8579    1.5270 C   0  0  0  0  0  0  0  0  0  0  0  0
    0.4347    1.8148    2.5399 C   0  0  0  0  0  0  0  0  0  0  0  0
    0.6340    2.6263    3.4152 C   0  0  0  0  0  0  0  0  0  0  0  0
   -1.1042    0.2714    1.5673 O   0  0  0  0  0  0  0  0  0  0  0  0
   -1.2374   -0.7025    0.4847 O   0  0  0  0  0  0  0  0  0  0  0  0
   -3.3029    0.2807   -1.2942 O   0  0  0  0  0  0  0  0  0  0  0  0
   -1.9379   -0.3295   -0.0883 H   0  0  0  0  0  0  0  0  0  0  0  0
    0.2774    1.3044    0.5305 H   0  0  0  0  0  0  0  0  0  0  0  0
    0.8857    0.0249    1.5827 H   0  0  0  0  0  0  0  0  0  0  0  0
    0.8036    3.3387    4.1897 H   0  0  0  0  0  0  0  0  0  0  0  0
   -3.6355   -0.0575   -2.1402 H   0  0  0  0  0  0  0  0  0  0  0  0
   -3.9749    0.9021   -0.9727 H   0  0  0  0  0  0  0  0  0  0  0  0
  1  2  1  0
  1  4  1  0
  1  8  1  0
  1  9  1  0
  2  3  3  0
  3 10  1  0
  4  5  1  0
  5  7  1  0
  6 11  1  0
  6 12  1  0
M  END
