OOCC#C.O_2
     RDKit          3D

 12 10  0  0  0  0  0  0  0  0999 V2000
   -0.3757    0.5826    1.5716 C   0  0  0  0  0  0  0  0  0  0  0  0
   -0.0108    1.7894    2.2204 C   0  0  0  0  0  0  0  0  0  0  0  0
    0.2942    2.8357    2.7462 C   0  0  0  0  0  0  0  0  0  0  0  0
   -0.4970    0.6728    0.1717 O   0  0  0  0  0  0  0  0  0  0  0  0
   -0.9404   -0.6030   -0.3820 O   0  0  0  0  0  0  0  0  0  0  0  0
   -3.4809    0.8762   -0.0271 O   0  0  0  0  0  0  0  0  0  0  0  0
   -0.1673   -0.9211   -0.8757 H   0  0  0  0  0  0  0  0  0  0  0  0
    0.3585   -0.2080    1.7699 H   0  0  0  0  0  0  0  0  0  0  0  0
   -1.3462    0.2231    1.9382 H   0  0  0  0  0  0  0  0  0  0  0  0
    0.5586    3.7625    3.2019 H   0  0  0  0  0  0  0  0  0  0  0  0
   -3.8308    0.7423   -0.9239 H   0  0  0  0  0  0  0  0  0  0  0  0
   -2.5462    0.5790   -0.0696 H   0  0  0  0  0  0  0  0  0  0  0  0
  1  2  1  0
  1  4  1  0
  1  8  1  0
  1  9  1  0
  2  3  3  0
  3 10  1  0
  4  5  1  0
  5  7  1  0
  6 11  1  0
  6 12  1  0
M  END
