OOCC#C.O_0
     RDKit          3D

 12 10  0  0  0  0  0  0  0  0999 V2000
   -0.2482   -0.0096    1.7922 C   0  0  0  0  0  0  0  0  0  0  0  0
   -0.2955    1.3917    1.9883 C   0  0  0  0  0  0  0  0  0  0  0  0
   -0.3859    2.5941    2.0872 C   0  0  0  0  0  0  0  0  0  0  0  0
   -1.0308   -0.4580    0.7120 O   0  0  0  0  0  0  0  0  0  0  0  0
   -0.6199    0.1952   -0.5203 O   0  0  0  0  0  0  0  0  0  0  0  0
   -3.0100    1.7752    0.1798 O   0  0  0  0  0  0  0  0  0  0  0  0
   -0.1568   -0.5040   -1.0109 H   0  0  0  0  0  0  0  0  0  0  0  0
    0.7791   -0.3390    1.5936 H   0  0  0  0  0  0  0  0  0  0  0  0
   -0.6021   -0.5437    2.6832 H   0  0  0  0  0  0  0  0  0  0  0  0
   -0.4938    3.6529    2.1508 H   0  0  0  0  0  0  0  0  0  0  0  0
   -3.6675    1.4243   -0.4443 H   0  0  0  0  0  0  0  0  0  0  0  0
   -2.2525    1.1526    0.1300 H   0  0  0  0  0  0  0  0  0  0  0  0
  1  2  1  0
  1  4  1  0
  1  8  1  0
  1  9  1  0
  2  3  3  0
  3 10  1  0
  4  5  1  0
  5  7  1  0
  6 11  1  0
  6 12  1  0
M  END
