OOCC#C.O_8
     RDKit          3D

 12 10  0  0  0  0  0  0  0  0999 V2000
   -0.0108    0.7351    1.8074 C   0  0  0  0  0  0  0  0  0  0  0  0
    0.4654    1.8903    2.4773 C   0  0  0  0  0  0  0  0  0  0  0  0
    0.8716    2.8894    3.0258 C   0  0  0  0  0  0  0  0  0  0  0  0
   -0.3126    0.9106    0.4449 O   0  0  0  0  0  0  0  0  0  0  0  0
   -0.7767   -0.3523   -0.1278 O   0  0  0  0  0  0  0  0  0  0  0  0
   -3.5137    0.0183   -1.0102 O   0  0  0  0  0  0  0  0  0  0  0  0
   -1.6987   -0.1701   -0.4013 H   0  0  0  0  0  0  0  0  0  0  0  0
    0.7300   -0.0734    1.8469 H   0  0  0  0  0  0  0  0  0  0  0  0
   -0.9254    0.3573    2.2805 H   0  0  0  0  0  0  0  0  0  0  0  0
    1.2305    3.7728    3.5023 H   0  0  0  0  0  0  0  0  0  0  0  0
   -4.3293    0.2658   -0.5473 H   0  0  0  0  0  0  0  0  0  0  0  0
   -3.7140    0.0878   -1.9569 H   0  0  0  0  0  0  0  0  0  0  0  0
  1  2  1  0
  1  4  1  0
  1  8  1  0
  1  9  1  0
  2  3  3  0
  3 10  1  0
  4  5  1  0
  5  7  1  0
  6 11  1  0
  6 12  1  0
M  END
