OOCC#C.O_1
     RDKit          3D

 12 10  0  0  0  0  0  0  0  0999 V2000
   -0.7393    0.5063    1.8255 C   0  0  0  0  0  0  0  0  0  0  0  0
    0.1260    1.5881    2.1157 C   0  0  0  0  0  0  0  0  0  0  0  0
    0.8730    2.5186    2.3158 C   0  0  0  0  0  0  0  0  0  0  0  0
   -0.6007   -0.0124    0.5246 O   0  0  0  0  0  0  0  0  0  0  0  0
   -0.8733    1.0160   -0.4657 O   0  0  0  0  0  0  0  0  0  0  0  0
   -3.5586   -0.1073   -0.0508 O   0  0  0  0  0  0  0  0  0  0  0  0
    0.0054    1.2319   -0.8182 H   0  0  0  0  0  0  0  0  0  0  0  0
   -0.5767   -0.3291    2.5185 H   0  0  0  0  0  0  0  0  0  0  0  0
   -1.7880    0.8170    1.9216 H   0  0  0  0  0  0  0  0  0  0  0  0
    1.5308    3.3395    2.4884 H   0  0  0  0  0  0  0  0  0  0  0  0
   -3.7773   -0.3628   -0.9625 H   0  0  0  0  0  0  0  0  0  0  0  0
   -2.6051    0.1260   -0.0713 H   0  0  0  0  0  0  0  0  0  0  0  0
  1  2  1  0
  1  4  1  0
  1  8  1  0
  1  9  1  0
  2  3  3  0
  3 10  1  0
  4  5  1  0
  5  7  1  0
  6 11  1  0
  6 12  1  0
M  END
