OOCC#C.O
     RDKit          3D

 12 10  0  0  0  0  0  0  0  0999 V2000
   -0.1835    0.3090    1.4395 C   0  0  0  0  0  0  0  0  0  0  0  0
   -0.2740    1.6739    1.9593 C   0  0  0  0  0  0  0  0  0  0  0  0
   -0.3502    2.7984    2.3872 C   0  0  0  0  0  0  0  0  0  0  0  0
   -0.1098    0.3550    0.0394 O   0  0  0  0  0  0  0  0  0  0  0  0
   -0.0534   -0.9008   -0.3636 O   0  0  0  0  0  0  0  0  0  0  0  0
   -3.4124    1.4048    0.3062 O   0  0  0  0  0  0  0  0  0  0  0  0
   -0.9386   -1.0754   -0.7754 H   0  0  0  0  0  0  0  0  0  0  0  0
    0.7277   -0.1709    1.8597 H   0  0  0  0  0  0  0  0  0  0  0  0
   -1.0874   -0.2525    1.7644 H   0  0  0  0  0  0  0  0  0  0  0  0
   -0.4173    3.7856    2.7626 H   0  0  0  0  0  0  0  0  0  0  0  0
   -2.6975    1.9385   -0.1234 H   0  0  0  0  0  0  0  0  0  0  0  0
   -3.1875    0.4660    0.0857 H   0  0  0  0  0  0  0  0  0  0  0  0
  1  2  1  0
  1  4  1  0
  1  8  1  0
  1  9  1  0
  2  3  3  0
  3 10  1  0
  4  5  1  0
  5  7  1  0
  6 11  1  0
  6 12  1  0
M  END
