COOCC=O_6
     RDKit          3D

 12 11  0  0  0  0  0  0  0  0999 V2000
   -0.2282   -1.4153    1.0896 C   0  0  0  0  0  0  0  0  0  0  0  0
    1.2932    1.2959   -0.2622 C   0  0  0  0  0  0  0  0  0  0  0  0
    1.2371    1.8519    1.1145 C   0  0  0  0  0  0  0  0  0  0  0  0
    0.8184   -0.9339    0.3194 O   0  0  0  0  0  0  0  0  0  0  0  0
    0.3902    0.2422   -0.4540 O   0  0  0  0  0  0  0  0  0  0  0  0
    2.0220    2.6427    1.5442 O   0  0  0  0  0  0  0  0  0  0  0  0
   -0.5279   -0.6462    1.8031 H   0  0  0  0  0  0  0  0  0  0  0  0
    0.1044   -2.3130    1.6149 H   0  0  0  0  0  0  0  0  0  0  0  0
   -1.0591   -1.6502    0.4210 H   0  0  0  0  0  0  0  0  0  0  0  0
    0.4289    1.5564    1.7713 H   0  0  0  0  0  0  0  0  0  0  0  0
    1.0685    2.0714   -1.0041 H   0  0  0  0  0  0  0  0  0  0  0  0
    2.2934    0.8957   -0.4681 H   0  0  0  0  0  0  0  0  0  0  0  0
  1  4  1  0
  1  7  1  0
  1  8  1  0
  1  9  1  0
  2  3  1  0
  2  5  1  0
  2 11  1  0
  2 12  1  0
  3  6  2  0
  3 10  1  0
  4  5  1  0
M  END
