COOCC=O_1
     RDKit          3D

 12 11  0  0  0  0  0  0  0  0999 V2000
   -0.3758   -1.1396    1.0342 C   0  0  0  0  0  0  0  0  0  0  0  0
    1.7488    1.0537   -0.0492 C   0  0  0  0  0  0  0  0  0  0  0  0
    0.8493    1.7680    0.8944 C   0  0  0  0  0  0  0  0  0  0  0  0
    0.9922   -0.9500    0.9136 O   0  0  0  0  0  0  0  0  0  0  0  0
    1.2801   -0.2318   -0.3269 O   0  0  0  0  0  0  0  0  0  0  0  0
   -0.3381    1.7489    0.8057 O   0  0  0  0  0  0  0  0  0  0  0  0
   -0.5887   -1.6075    1.9975 H   0  0  0  0  0  0  0  0  0  0  0  0
   -0.7033   -1.7784    0.2118 H   0  0  0  0  0  0  0  0  0  0  0  0
   -0.8586   -0.1617    0.9625 H   0  0  0  0  0  0  0  0  0  0  0  0
    1.2647    2.3686    1.6948 H   0  0  0  0  0  0  0  0  0  0  0  0
    1.8089    1.5857   -1.0061 H   0  0  0  0  0  0  0  0  0  0  0  0
    2.7614    0.9419    0.3573 H   0  0  0  0  0  0  0  0  0  0  0  0
  1  4  1  0
  1  7  1  0
  1  8  1  0
  1  9  1  0
  2  3  1  0
  2  5  1  0
  2 11  1  0
  2 12  1  0
  3  6  2  0
  3 10  1  0
  4  5  1  0
M  END
