COOCC=O_0
     RDKit          3D

 12 11  0  0  0  0  0  0  0  0999 V2000
   -0.2161   -1.1953    1.1267 C   0  0  0  0  0  0  0  0  0  0  0  0
    1.6059    1.0551   -0.1004 C   0  0  0  0  0  0  0  0  0  0  0  0
    0.8107    1.8871    0.8408 C   0  0  0  0  0  0  0  0  0  0  0  0
    0.9286   -1.1463    0.3483 O   0  0  0  0  0  0  0  0  0  0  0  0
    0.8613   -0.0237   -0.5879 O   0  0  0  0  0  0  0  0  0  0  0  0
    0.4515    1.5032    1.9101 O   0  0  0  0  0  0  0  0  0  0  0  0
   -0.2145   -2.1235    1.7018 H   0  0  0  0  0  0  0  0  0  0  0  0
   -1.0808   -1.1539    0.4615 H   0  0  0  0  0  0  0  0  0  0  0  0
   -0.2107   -0.3316    1.7955 H   0  0  0  0  0  0  0  0  0  0  0  0
    0.4706    2.8719    0.5431 H   0  0  0  0  0  0  0  0  0  0  0  0
    1.9613    1.6320   -0.9630 H   0  0  0  0  0  0  0  0  0  0  0  0
    2.4733    0.6228    0.4129 H   0  0  0  0  0  0  0  0  0  0  0  0
  1  4  1  0
  1  7  1  0
  1  8  1  0
  1  9  1  0
  2  3  1  0
  2  5  1  0
  2 11  1  0
  2 12  1  0
  3  6  2  0
  3 10  1  0
  4  5  1  0
M  END
