COOCC=O_3
     RDKit          3D

 12 11  0  0  0  0  0  0  0  0999 V2000
   -0.1445   -1.5173    1.0415 C   0  0  0  0  0  0  0  0  0  0  0  0
    1.0614    1.2153   -0.1835 C   0  0  0  0  0  0  0  0  0  0  0  0
    1.5103    2.0409    0.9670 C   0  0  0  0  0  0  0  0  0  0  0  0
   -0.1174   -0.1598    1.3158 O   0  0  0  0  0  0  0  0  0  0  0  0
   -0.1757    0.6090    0.0670 O   0  0  0  0  0  0  0  0  0  0  0  0
    2.5386    2.6481    0.9917 O   0  0  0  0  0  0  0  0  0  0  0  0
   -0.1535   -2.0682    1.9844 H   0  0  0  0  0  0  0  0  0  0  0  0
    0.7394   -1.7774    0.4570 H   0  0  0  0  0  0  0  0  0  0  0  0
   -1.0495   -1.7281    0.4678 H   0  0  0  0  0  0  0  0  0  0  0  0
    0.8872    2.0809    1.8539 H   0  0  0  0  0  0  0  0  0  0  0  0
    0.9561    1.8323   -1.0838 H   0  0  0  0  0  0  0  0  0  0  0  0
    1.7887    0.4222   -0.3894 H   0  0  0  0  0  0  0  0  0  0  0  0
  1  4  1  0
  1  7  1  0
  1  8  1  0
  1  9  1  0
  2  3  1  0
  2  5  1  0
  2 11  1  0
  2 12  1  0
  3  6  2  0
  3 10  1  0
  4  5  1  0
M  END
