COOCC=O_9
     RDKit          3D

 12 11  0  0  0  0  0  0  0  0999 V2000
   -0.4104   -1.8143    0.8021 C   0  0  0  0  0  0  0  0  0  0  0  0
    1.3665    1.2345    0.2186 C   0  0  0  0  0  0  0  0  0  0  0  0
    1.4553    2.5602    0.8857 C   0  0  0  0  0  0  0  0  0  0  0  0
    0.4538   -0.9411    0.1621 O   0  0  0  0  0  0  0  0  0  0  0  0
    0.4981    0.3560    0.8782 O   0  0  0  0  0  0  0  0  0  0  0  0
    2.1438    3.4543    0.4945 O   0  0  0  0  0  0  0  0  0  0  0  0
   -0.0494   -1.9658    1.8214 H   0  0  0  0  0  0  0  0  0  0  0  0
   -0.4301   -2.7599    0.2566 H   0  0  0  0  0  0  0  0  0  0  0  0
   -1.4031   -1.3598    0.8194 H   0  0  0  0  0  0  0  0  0  0  0  0
    0.8672    2.7428    1.7773 H   0  0  0  0  0  0  0  0  0  0  0  0
    0.9996    1.3401   -0.8091 H   0  0  0  0  0  0  0  0  0  0  0  0
    2.3496    0.7509    0.1827 H   0  0  0  0  0  0  0  0  0  0  0  0
  1  4  1  0
  1  7  1  0
  1  8  1  0
  1  9  1  0
  2  3  1  0
  2  5  1  0
  2 11  1  0
  2 12  1  0
  3  6  2  0
  3 10  1  0
  4  5  1  0
M  END
