COOCC=O_8
     RDKit          3D

 12 11  0  0  0  0  0  0  0  0999 V2000
   -0.1612   -1.7689    0.6735 C   0  0  0  0  0  0  0  0  0  0  0  0
    0.9453    1.2599    0.2781 C   0  0  0  0  0  0  0  0  0  0  0  0
    1.5807    2.4492    0.9050 C   0  0  0  0  0  0  0  0  0  0  0  0
    0.7833   -0.9041    1.2003 O   0  0  0  0  0  0  0  0  0  0  0  0
    0.2548    0.4679    1.2131 O   0  0  0  0  0  0  0  0  0  0  0  0
    2.1817    3.2788    0.2913 O   0  0  0  0  0  0  0  0  0  0  0  0
   -0.3764   -1.4710   -0.3542 H   0  0  0  0  0  0  0  0  0  0  0  0
   -1.0644   -1.6937    1.2823 H   0  0  0  0  0  0  0  0  0  0  0  0
    0.2347   -2.7863    0.7021 H   0  0  0  0  0  0  0  0  0  0  0  0
    1.5176    2.5763    1.9796 H   0  0  0  0  0  0  0  0  0  0  0  0
    0.2351    1.5670   -0.4988 H   0  0  0  0  0  0  0  0  0  0  0  0
    1.7099    0.6227   -0.1829 H   0  0  0  0  0  0  0  0  0  0  0  0
  1  4  1  0
  1  7  1  0
  1  8  1  0
  1  9  1  0
  2  3  1  0
  2  5  1  0
  2 11  1  0
  2 12  1  0
  3  6  2  0
  3 10  1  0
  4  5  1  0
M  END
