COOCC=O_2
     RDKit          3D

 12 11  0  0  0  0  0  0  0  0999 V2000
   -0.4476   -1.0861    0.7673 C   0  0  0  0  0  0  0  0  0  0  0  0
    1.7956    0.9852    0.1715 C   0  0  0  0  0  0  0  0  0  0  0  0
    0.8990    1.7984    1.0358 C   0  0  0  0  0  0  0  0  0  0  0  0
    0.6373   -1.0336   -0.1004 O   0  0  0  0  0  0  0  0  0  0  0  0
    1.7733   -0.3647    0.5350 O   0  0  0  0  0  0  0  0  0  0  0  0
   -0.2656    1.5810    1.1632 O   0  0  0  0  0  0  0  0  0  0  0  0
   -0.1778   -0.5323    1.6709 H   0  0  0  0  0  0  0  0  0  0  0  0
   -0.6689   -2.1288    1.0057 H   0  0  0  0  0  0  0  0  0  0  0  0
   -1.3022   -0.6029    0.2865 H   0  0  0  0  0  0  0  0  0  0  0  0
    1.2977    2.6297    1.6051 H   0  0  0  0  0  0  0  0  0  0  0  0
    1.4630    1.0271   -0.8726 H   0  0  0  0  0  0  0  0  0  0  0  0
    2.8373    1.3247    0.2216 H   0  0  0  0  0  0  0  0  0  0  0  0
  1  4  1  0
  1  7  1  0
  1  8  1  0
  1  9  1  0
  2  3  1  0
  2  5  1  0
  2 11  1  0
  2 12  1  0
  3  6  2  0
  3 10  1  0
  4  5  1  0
M  END
