COOCC=O_5
     RDKit          3D

 12 11  0  0  0  0  0  0  0  0999 V2000
   -0.3904   -1.2222    1.1321 C   0  0  0  0  0  0  0  0  0  0  0  0
    1.6921    1.0602   -0.1474 C   0  0  0  0  0  0  0  0  0  0  0  0
    0.9304    1.8714    0.8403 C   0  0  0  0  0  0  0  0  0  0  0  0
    0.9416   -0.8584    1.0097 O   0  0  0  0  0  0  0  0  0  0  0  0
    1.1653   -0.2292   -0.2996 O   0  0  0  0  0  0  0  0  0  0  0  0
    0.6052    3.0087    0.6734 O   0  0  0  0  0  0  0  0  0  0  0  0
   -0.5523   -1.6553    2.1214 H   0  0  0  0  0  0  0  0  0  0  0  0
   -0.6117   -1.9547    0.3533 H   0  0  0  0  0  0  0  0  0  0  0  0
   -1.0112   -0.3347    0.9936 H   0  0  0  0  0  0  0  0  0  0  0  0
    0.6670    1.4201    1.7884 H   0  0  0  0  0  0  0  0  0  0  0  0
    1.6650    1.5414   -1.1328 H   0  0  0  0  0  0  0  0  0  0  0  0
    2.7401    0.9504    0.1570 H   0  0  0  0  0  0  0  0  0  0  0  0
  1  4  1  0
  1  7  1  0
  1  8  1  0
  1  9  1  0
  2  3  1  0
  2  5  1  0
  2 11  1  0
  2 12  1  0
  3  6  2  0
  3 10  1  0
  4  5  1  0
M  END
