C=C.OC(=O)O_2
     RDKit          3D

 12 10  0  0  0  0  0  0  0  0999 V2000
   -1.9486   -0.7712    1.2816 C   0  0  0  0  0  0  0  0  0  0  0  0
   -1.4816   -0.4608    0.0937 C   0  0  0  0  0  0  0  0  0  0  0  0
    0.5195    2.4480    1.7170 C   0  0  0  0  0  0  0  0  0  0  0  0
   -0.4851    2.7511    0.8889 O   0  0  0  0  0  0  0  0  0  0  0  0
    0.6313    1.1650    2.0823 O   0  0  0  0  0  0  0  0  0  0  0  0
    1.2669    3.3199    2.0938 O   0  0  0  0  0  0  0  0  0  0  0  0
   -0.0725    0.6335    1.6652 H   0  0  0  0  0  0  0  0  0  0  0  0
   -0.4660    3.7045    0.6956 H   0  0  0  0  0  0  0  0  0  0  0  0
   -2.6822   -0.1606    1.7760 H   0  0  0  0  0  0  0  0  0  0  0  0
   -1.6355   -1.6617    1.7954 H   0  0  0  0  0  0  0  0  0  0  0  0
   -0.7666   -1.0841   -0.4117 H   0  0  0  0  0  0  0  0  0  0  0  0
   -1.8127    0.4174   -0.4301 H   0  0  0  0  0  0  0  0  0  0  0  0
  1  2  2  0
  1  9  1  0
  1 10  1  0
  2 11  1  0
  2 12  1  0
  3  4  1  0
  3  5  1  0
  3  6  2  0
  4  8  1  0
  5  7  1  0
M  END
