C=C.OC(=O)O_3
     RDKit          3D

 12 10  0  0  0  0  0  0  0  0999 V2000
   -2.3489   -1.1999    0.7644 C   0  0  0  0  0  0  0  0  0  0  0  0
   -1.5340   -0.5954   -0.0693 C   0  0  0  0  0  0  0  0  0  0  0  0
    0.3520    2.3771    1.6048 C   0  0  0  0  0  0  0  0  0  0  0  0
    1.1027    3.4263    1.9539 O   0  0  0  0  0  0  0  0  0  0  0  0
   -0.4487    1.8682    2.5496 O   0  0  0  0  0  0  0  0  0  0  0  0
    0.4208    1.9397    0.4803 O   0  0  0  0  0  0  0  0  0  0  0  0
   -0.3510    2.3673    3.3811 H   0  0  0  0  0  0  0  0  0  0  0  0
    1.6384    3.7077    1.1921 H   0  0  0  0  0  0  0  0  0  0  0  0
   -2.9490   -2.0372    0.4586 H   0  0  0  0  0  0  0  0  0  0  0  0
   -2.4475   -0.8809    1.7858 H   0  0  0  0  0  0  0  0  0  0  0  0
   -0.9339    0.2418    0.2371 H   0  0  0  0  0  0  0  0  0  0  0  0
   -1.4341   -0.9135   -1.0906 H   0  0  0  0  0  0  0  0  0  0  0  0
  1  2  2  0
  1  9  1  0
  1 10  1  0
  2 11  1  0
  2 12  1  0
  3  4  1  0
  3  5  1  0
  3  6  2  0
  4  8  1  0
  5  7  1  0
M  END
