C=C.OC(=O)O_0
     RDKit          3D

 12 10  0  0  0  0  0  0  0  0999 V2000
   -0.7506   -1.2562    0.7864 C   0  0  0  0  0  0  0  0  0  0  0  0
   -1.2914   -0.5102   -0.1499 C   0  0  0  0  0  0  0  0  0  0  0  0
   -0.3417    2.7346    1.5782 C   0  0  0  0  0  0  0  0  0  0  0  0
   -0.8319    1.7075    2.2789 O   0  0  0  0  0  0  0  0  0  0  0  0
   -0.1986    3.8929    2.2342 O   0  0  0  0  0  0  0  0  0  0  0  0
   -0.0554    2.5818    0.4139 O   0  0  0  0  0  0  0  0  0  0  0  0
   -0.4890    3.7934    3.1597 H   0  0  0  0  0  0  0  0  0  0  0  0
   -0.8907    0.9252    1.7024 H   0  0  0  0  0  0  0  0  0  0  0  0
    0.3153   -1.3544    0.8830 H   0  0  0  0  0  0  0  0  0  0  0  0
   -1.3526   -1.8192    1.4762 H   0  0  0  0  0  0  0  0  0  0  0  0
   -2.3572   -0.4308   -0.2626 H   0  0  0  0  0  0  0  0  0  0  0  0
   -0.6895    0.0366   -0.8528 H   0  0  0  0  0  0  0  0  0  0  0  0
  1  2  2  0
  1  9  1  0
  1 10  1  0
  2 11  1  0
  2 12  1  0
  3  4  1  0
  3  5  1  0
  3  6  2  0
  4  8  1  0
  5  7  1  0
M  END
