C=C.OC(=O)O_1
     RDKit          3D

 12 10  0  0  0  0  0  0  0  0999 V2000
   -0.9446   -1.1398    0.9008 C   0  0  0  0  0  0  0  0  0  0  0  0
   -1.5727   -0.5825   -0.1094 C   0  0  0  0  0  0  0  0  0  0  0  0
    0.0978    2.5574    1.6614 C   0  0  0  0  0  0  0  0  0  0  0  0
   -1.1070    2.0250    1.8870 O   0  0  0  0  0  0  0  0  0  0  0  0
    0.3346    3.7565    2.2078 O   0  0  0  0  0  0  0  0  0  0  0  0
    0.9027    1.9527    0.9925 O   0  0  0  0  0  0  0  0  0  0  0  0
   -0.4476    4.0602    2.7045 H   0  0  0  0  0  0  0  0  0  0  0  0
   -1.1623    1.1596    1.4444 H   0  0  0  0  0  0  0  0  0  0  0  0
   -1.4785   -1.5908    1.7172 H   0  0  0  0  0  0  0  0  0  0  0  0
    0.1284   -1.1887    0.9389 H   0  0  0  0  0  0  0  0  0  0  0  0
   -1.0382   -0.1538   -0.9375 H   0  0  0  0  0  0  0  0  0  0  0  0
   -2.6460   -0.5546   -0.1599 H   0  0  0  0  0  0  0  0  0  0  0  0
  1  2  2  0
  1  9  1  0
  1 10  1  0
  2 11  1  0
  2 12  1  0
  3  4  1  0
  3  5  1  0
  3  6  2  0
  4  8  1  0
  5  7  1  0
M  END
