C=C.OC(=O)O_16
     RDKit          3D

 12 10  0  0  0  0  0  0  0  0999 V2000
   -1.8928   -0.2197    0.0419 C   0  0  0  0  0  0  0  0  0  0  0  0
   -1.7797   -1.5280    0.0606 C   0  0  0  0  0  0  0  0  0  0  0  0
    0.3410    2.3795    1.8619 C   0  0  0  0  0  0  0  0  0  0  0  0
    0.9828    3.2903    2.6000 O   0  0  0  0  0  0  0  0  0  0  0  0
   -0.8505    1.9691    2.3136 O   0  0  0  0  0  0  0  0  0  0  0  0
    0.8459    1.9714    0.8424 O   0  0  0  0  0  0  0  0  0  0  0  0
   -1.0692    2.4220    3.1487 H   0  0  0  0  0  0  0  0  0  0  0  0
    1.8304    3.5103    2.1761 H   0  0  0  0  0  0  0  0  0  0  0  0
   -1.3793    0.4010    0.7529 H   0  0  0  0  0  0  0  0  0  0  0  0
   -2.5010    0.2833   -0.6871 H   0  0  0  0  0  0  0  0  0  0  0  0
   -2.2920   -2.1481   -0.6518 H   0  0  0  0  0  0  0  0  0  0  0  0
   -1.1688   -2.0299    0.7883 H   0  0  0  0  0  0  0  0  0  0  0  0
  1  2  2  0
  1  9  1  0
  1 10  1  0
  2 11  1  0
  2 12  1  0
  3  4  1  0
  3  5  1  0
  3  6  2  0
  4  8  1  0
  5  7  1  0
M  END
