C=C.OC(=O)O_19
     RDKit          3D

 12 10  0  0  0  0  0  0  0  0999 V2000
   -1.6423   -0.0042    0.3344 C   0  0  0  0  0  0  0  0  0  0  0  0
   -1.8098   -1.2877    0.1132 C   0  0  0  0  0  0  0  0  0  0  0  0
    0.2121    2.7080    1.8727 C   0  0  0  0  0  0  0  0  0  0  0  0
    0.8809    1.5506    1.8630 O   0  0  0  0  0  0  0  0  0  0  0  0
   -0.9138    2.7449    2.5968 O   0  0  0  0  0  0  0  0  0  0  0  0
    0.6370    3.6487    1.2438 O   0  0  0  0  0  0  0  0  0  0  0  0
   -1.0713    1.8816    3.0218 H   0  0  0  0  0  0  0  0  0  0  0  0
    1.6761    1.6427    1.3097 H   0  0  0  0  0  0  0  0  0  0  0  0
   -2.3642    0.7227    0.0106 H   0  0  0  0  0  0  0  0  0  0  0  0
   -0.7749    0.3706    0.8459 H   0  0  0  0  0  0  0  0  0  0  0  0
   -1.0868   -2.0142    0.4357 H   0  0  0  0  0  0  0  0  0  0  0  0
   -2.6762   -1.6625   -0.3998 H   0  0  0  0  0  0  0  0  0  0  0  0
  1  2  2  0
  1  9  1  0
  1 10  1  0
  2 11  1  0
  2 12  1  0
  3  4  1  0
  3  5  1  0
  3  6  2  0
  4  8  1  0
  5  7  1  0
M  END
