C=C.OC(=O)O_14
     RDKit          3D

 12 10  0  0  0  0  0  0  0  0999 V2000
   -2.0367   -1.4904    0.0842 C   0  0  0  0  0  0  0  0  0  0  0  0
   -1.1156   -0.7622    0.6722 C   0  0  0  0  0  0  0  0  0  0  0  0
   -0.1858    2.8013    1.5932 C   0  0  0  0  0  0  0  0  0  0  0  0
    1.1124    2.6514    1.8741 O   0  0  0  0  0  0  0  0  0  0  0  0
   -0.9474    3.3530    2.5464 O   0  0  0  0  0  0  0  0  0  0  0  0
   -0.6102    2.4403    0.5206 O   0  0  0  0  0  0  0  0  0  0  0  0
   -0.4068    3.5679    3.3288 H   0  0  0  0  0  0  0  0  0  0  0  0
    1.5623    2.2433    1.1141 H   0  0  0  0  0  0  0  0  0  0  0  0
   -2.7779   -1.0500   -0.5571 H   0  0  0  0  0  0  0  0  0  0  0  0
   -2.0863   -2.5549    0.2216 H   0  0  0  0  0  0  0  0  0  0  0  0
   -0.3744   -1.2013    1.3144 H   0  0  0  0  0  0  0  0  0  0  0  0
   -1.0668    0.3027    0.5352 H   0  0  0  0  0  0  0  0  0  0  0  0
  1  2  2  0
  1  9  1  0
  1 10  1  0
  2 11  1  0
  2 12  1  0
  3  4  1  0
  3  5  1  0
  3  6  2  0
  4  8  1  0
  5  7  1  0
M  END
