C=C.OC(=O)O_13
     RDKit          3D

 12 10  0  0  0  0  0  0  0  0999 V2000
   -1.6651   -1.8582    0.7059 C   0  0  0  0  0  0  0  0  0  0  0  0
   -1.4051   -0.6031    0.4200 C   0  0  0  0  0  0  0  0  0  0  0  0
   -0.2266    2.7709    1.8075 C   0  0  0  0  0  0  0  0  0  0  0  0
    1.0693    2.8152    1.4829 O   0  0  0  0  0  0  0  0  0  0  0  0
   -0.9826    3.8002    1.4052 O   0  0  0  0  0  0  0  0  0  0  0  0
   -0.6541    1.8280    2.4314 O   0  0  0  0  0  0  0  0  0  0  0  0
   -0.4403    4.4479    0.9184 H   0  0  0  0  0  0  0  0  0  0  0  0
    1.5152    2.0207    1.8241 H   0  0  0  0  0  0  0  0  0  0  0  0
   -1.6777   -2.2136    1.7198 H   0  0  0  0  0  0  0  0  0  0  0  0
   -1.8771   -2.5790   -0.0623 H   0  0  0  0  0  0  0  0  0  0  0  0
   -1.3944   -0.2461   -0.5935 H   0  0  0  0  0  0  0  0  0  0  0  0
   -1.1947    0.1181    1.1885 H   0  0  0  0  0  0  0  0  0  0  0  0
  1  2  2  0
  1  9  1  0
  1 10  1  0
  2 11  1  0
  2 12  1  0
  3  4  1  0
  3  5  1  0
  3  6  2  0
  4  8  1  0
  5  7  1  0
M  END
