C=C.OC(=O)O_12
     RDKit          3D

 12 10  0  0  0  0  0  0  0  0999 V2000
   -1.4784   -1.7615    0.3537 C   0  0  0  0  0  0  0  0  0  0  0  0
   -1.7799   -0.5027    0.5754 C   0  0  0  0  0  0  0  0  0  0  0  0
    0.0618    2.7780    1.3959 C   0  0  0  0  0  0  0  0  0  0  0  0
    0.7079    2.4296    2.5130 O   0  0  0  0  0  0  0  0  0  0  0  0
   -0.6774    3.8931    1.4521 O   0  0  0  0  0  0  0  0  0  0  0  0
    0.1649    2.0907    0.4072 O   0  0  0  0  0  0  0  0  0  0  0  0
   -0.6226    4.2904    2.3408 H   0  0  0  0  0  0  0  0  0  0  0  0
    1.2081    1.6103    2.3549 H   0  0  0  0  0  0  0  0  0  0  0  0
   -2.2041   -2.5445    0.4752 H   0  0  0  0  0  0  0  0  0  0  0  0
   -0.4945   -2.0581    0.0398 H   0  0  0  0  0  0  0  0  0  0  0  0
   -1.0549    0.2811    0.4524 H   0  0  0  0  0  0  0  0  0  0  0  0
   -2.7641   -0.2053    0.8872 H   0  0  0  0  0  0  0  0  0  0  0  0
  1  2  2  0
  1  9  1  0
  1 10  1  0
  2 11  1  0
  2 12  1  0
  3  4  1  0
  3  5  1  0
  3  6  2  0
  4  8  1  0
  5  7  1  0
M  END
