C=C.OC(=O)O_18
     RDKit          3D

 12 10  0  0  0  0  0  0  0  0999 V2000
   -2.1583   -0.7966    0.4612 C   0  0  0  0  0  0  0  0  0  0  0  0
   -0.8762   -0.7744    0.7446 C   0  0  0  0  0  0  0  0  0  0  0  0
   -0.1406    2.7901    1.4620 C   0  0  0  0  0  0  0  0  0  0  0  0
    0.9099    1.9632    1.4537 O   0  0  0  0  0  0  0  0  0  0  0  0
   -1.0848    2.5537    2.3818 O   0  0  0  0  0  0  0  0  0  0  0  0
   -0.1958    3.6932    0.6605 O   0  0  0  0  0  0  0  0  0  0  0  0
   -0.8435    1.7804    2.9242 H   0  0  0  0  0  0  0  0  0  0  0  0
    1.5254    2.2319    0.7496 H   0  0  0  0  0  0  0  0  0  0  0  0
   -2.7396    0.1056    0.4107 H   0  0  0  0  0  0  0  0  0  0  0  0
   -2.6766   -1.7174    0.2666 H   0  0  0  0  0  0  0  0  0  0  0  0
   -0.2940   -1.6759    0.7941 H   0  0  0  0  0  0  0  0  0  0  0  0
   -0.3590    0.1472    0.9387 H   0  0  0  0  0  0  0  0  0  0  0  0
  1  2  2  0
  1  9  1  0
  1 10  1  0
  2 11  1  0
  2 12  1  0
  3  4  1  0
  3  5  1  0
  3  6  2  0
  4  8  1  0
  5  7  1  0
M  END
