C=C.OC(=O)O_7
     RDKit          3D

 12 10  0  0  0  0  0  0  0  0999 V2000
   -1.5760   -1.4628    0.8447 C   0  0  0  0  0  0  0  0  0  0  0  0
   -1.2324   -0.6106   -0.0937 C   0  0  0  0  0  0  0  0  0  0  0  0
   -0.0394    2.6964    1.4761 C   0  0  0  0  0  0  0  0  0  0  0  0
   -0.8734    2.8797    2.5045 O   0  0  0  0  0  0  0  0  0  0  0  0
    1.2703    2.7110    1.7544 O   0  0  0  0  0  0  0  0  0  0  0  0
   -0.4874    2.5245    0.3668 O   0  0  0  0  0  0  0  0  0  0  0  0
    1.4117    2.8612    2.7072 H   0  0  0  0  0  0  0  0  0  0  0  0
   -1.7921    2.8477    2.1854 H   0  0  0  0  0  0  0  0  0  0  0  0
   -1.6297   -1.1717    1.8779 H   0  0  0  0  0  0  0  0  0  0  0  0
   -1.8158   -2.4852    0.6169 H   0  0  0  0  0  0  0  0  0  0  0  0
   -1.1775   -0.9009   -1.1267 H   0  0  0  0  0  0  0  0  0  0  0  0
   -0.9915    0.4119    0.1341 H   0  0  0  0  0  0  0  0  0  0  0  0
  1  2  2  0
  1  9  1  0
  1 10  1  0
  2 11  1  0
  2 12  1  0
  3  4  1  0
  3  5  1  0
  3  6  2  0
  4  8  1  0
  5  7  1  0
M  END
