C=C.OC(=O)O_10
     RDKit          3D

 12 10  0  0  0  0  0  0  0  0999 V2000
   -1.2944   -0.6042    0.2370 C   0  0  0  0  0  0  0  0  0  0  0  0
   -2.4554   -1.0672   -0.1658 C   0  0  0  0  0  0  0  0  0  0  0  0
    0.4242    2.2375    1.9958 C   0  0  0  0  0  0  0  0  0  0  0  0
    0.9949    3.2612    2.6386 O   0  0  0  0  0  0  0  0  0  0  0  0
   -0.9094    2.2668    1.8802 O   0  0  0  0  0  0  0  0  0  0  0  0
    1.1138    1.3480    1.5551 O   0  0  0  0  0  0  0  0  0  0  0  0
   -1.2675    3.0686    2.3035 H   0  0  0  0  0  0  0  0  0  0  0  0
    1.9589    3.1319    2.6602 H   0  0  0  0  0  0  0  0  0  0  0  0
   -1.2113    0.3292    0.7627 H   0  0  0  0  0  0  0  0  0  0  0  0
   -0.3800   -1.1389    0.0574 H   0  0  0  0  0  0  0  0  0  0  0  0
   -2.5380   -2.0008   -0.6916 H   0  0  0  0  0  0  0  0  0  0  0  0
   -3.3690   -0.5309    0.0145 H   0  0  0  0  0  0  0  0  0  0  0  0
  1  2  2  0
  1  9  1  0
  1 10  1  0
  2 11  1  0
  2 12  1  0
  3  4  1  0
  3  5  1  0
  3  6  2  0
  4  8  1  0
  5  7  1  0
M  END
