C=C.OC(=O)O_8
     RDKit          3D

 12 10  0  0  0  0  0  0  0  0999 V2000
   -1.6011   -0.2302   -0.2700 C   0  0  0  0  0  0  0  0  0  0  0  0
   -1.7223   -1.3056    0.4741 C   0  0  0  0  0  0  0  0  0  0  0  0
    0.0086    2.5636    1.7913 C   0  0  0  0  0  0  0  0  0  0  0  0
    1.0275    1.9806    2.4305 O   0  0  0  0  0  0  0  0  0  0  0  0
   -0.9016    3.1850    2.5518 O   0  0  0  0  0  0  0  0  0  0  0  0
   -0.0521    2.5052    0.5855 O   0  0  0  0  0  0  0  0  0  0  0  0
   -0.6630    3.1096    3.4940 H   0  0  0  0  0  0  0  0  0  0  0  0
    1.6194    1.5624    1.7814 H   0  0  0  0  0  0  0  0  0  0  0  0
   -2.0133   -0.1806   -1.2609 H   0  0  0  0  0  0  0  0  0  0  0  0
   -1.0857    0.6443    0.0829 H   0  0  0  0  0  0  0  0  0  0  0  0
   -1.3109   -1.3538    1.4658 H   0  0  0  0  0  0  0  0  0  0  0  0
   -2.2388   -2.1793    0.1215 H   0  0  0  0  0  0  0  0  0  0  0  0
  1  2  2  0
  1  9  1  0
  1 10  1  0
  2 11  1  0
  2 12  1  0
  3  4  1  0
  3  5  1  0
  3  6  2  0
  4  8  1  0
  5  7  1  0
M  END
