C=C.OC(=O)O
     RDKit          3D

 12 10  0  0  0  0  0  0  0  0999 V2000
   -1.3992   -0.8620    1.1347 C   0  0  0  0  0  0  0  0  0  0  0  0
   -1.5582   -0.3344   -0.0769 C   0  0  0  0  0  0  0  0  0  0  0  0
   -0.0221    2.5451    1.3903 C   0  0  0  0  0  0  0  0  0  0  0  0
    0.7926    1.6367    2.0583 O   0  0  0  0  0  0  0  0  0  0  0  0
   -1.3046    2.8040    1.8578 O   0  0  0  0  0  0  0  0  0  0  0  0
    0.3978    3.1324    0.3591 O   0  0  0  0  0  0  0  0  0  0  0  0
   -1.6562    2.3344    2.6832 H   0  0  0  0  0  0  0  0  0  0  0  0
    1.7276    1.4347    1.7248 H   0  0  0  0  0  0  0  0  0  0  0  0
   -1.8309   -0.3755    2.0034 H   0  0  0  0  0  0  0  0  0  0  0  0
   -0.8348   -1.7800    1.2614 H   0  0  0  0  0  0  0  0  0  0  0  0
   -1.1246   -0.8193   -0.9454 H   0  0  0  0  0  0  0  0  0  0  0  0
   -2.1206    0.5850   -0.2030 H   0  0  0  0  0  0  0  0  0  0  0  0
  1  2  2  0
  1  9  1  0
  1 10  1  0
  2 11  1  0
  2 12  1  0
  3  4  1  0
  3  5  1  0
  3  6  2  0
  4  8  1  0
  5  7  1  0
M  END
