CC(=O)OCO_0
     RDKit          3D

 12 11  0  0  0  0  0  0  0  0999 V2000
    1.9264   -0.4567    0.7339 C   0  0  0  0  0  0  0  0  0  0  0  0
   -0.6064    1.6637   -0.8297 C   0  0  0  0  0  0  0  0  0  0  0  0
    0.0583    0.5531   -0.0914 C   0  0  0  0  0  0  0  0  0  0  0  0
    1.4100    0.6484    0.0398 O   0  0  0  0  0  0  0  0  0  0  0  0
    1.3661   -0.7076    1.9885 O   0  0  0  0  0  0  0  0  0  0  0  0
   -0.6164   -0.3510    0.3486 O   0  0  0  0  0  0  0  0  0  0  0  0
    0.3914   -0.7234    1.8911 H   0  0  0  0  0  0  0  0  0  0  0  0
    3.0012   -0.2853    0.8776 H   0  0  0  0  0  0  0  0  0  0  0  0
    1.8004   -1.3463    0.1003 H   0  0  0  0  0  0  0  0  0  0  0  0
    0.1330    2.3835   -1.1812 H   0  0  0  0  0  0  0  0  0  0  0  0
   -1.1515    1.2732   -1.6890 H   0  0  0  0  0  0  0  0  0  0  0  0
   -1.3141    2.1788   -0.1804 H   0  0  0  0  0  0  0  0  0  0  0  0
  1  4  1  0
  1  5  1  0
  1  8  1  0
  1  9  1  0
  2  3  1  0
  2 10  1  0
  2 11  1  0
  2 12  1  0
  3  4  1  0
  3  6  2  0
  5  7  1  0
M  END
