CC(=O)OCO_2
     RDKit          3D

 12 11  0  0  0  0  0  0  0  0999 V2000
    1.4357   -0.6835    0.8993 C   0  0  0  0  0  0  0  0  0  0  0  0
   -0.5776    1.7901   -0.8605 C   0  0  0  0  0  0  0  0  0  0  0  0
    0.0490    0.5116   -0.4231 C   0  0  0  0  0  0  0  0  0  0  0  0
    0.9235    0.5912    0.6183 O   0  0  0  0  0  0  0  0  0  0  0  0
    2.3775   -0.7287    1.9387 O   0  0  0  0  0  0  0  0  0  0  0  0
   -0.2377   -0.5181   -0.9944 O   0  0  0  0  0  0  0  0  0  0  0  0
    2.1385   -0.0611    2.6134 H   0  0  0  0  0  0  0  0  0  0  0  0
    1.9131   -1.0711   -0.0121 H   0  0  0  0  0  0  0  0  0  0  0  0
    0.5912   -1.3421    1.1501 H   0  0  0  0  0  0  0  0  0  0  0  0
   -1.6600    1.7411   -0.7413 H   0  0  0  0  0  0  0  0  0  0  0  0
   -0.1974    2.6231   -0.2690 H   0  0  0  0  0  0  0  0  0  0  0  0
   -0.3573    1.9780   -1.9113 H   0  0  0  0  0  0  0  0  0  0  0  0
  1  4  1  0
  1  5  1  0
  1  8  1  0
  1  9  1  0
  2  3  1  0
  2 10  1  0
  2 11  1  0
  2 12  1  0
  3  4  1  0
  3  6  2  0
  5  7  1  0
M  END
