O=C1COOC1.[H][H]_4
     RDKit          3D

 12 11  0  0  0  0  0  0  0  0999 V2000
   -0.1878    0.3163    0.4542 C   0  0  0  0  0  0  0  0  0  0  0  0
    1.5841    0.3302    2.0430 C   0  0  0  0  0  0  0  0  0  0  0  0
    0.9935    1.1128    0.9124 C   0  0  0  0  0  0  0  0  0  0  0  0
    0.0265   -1.0038    0.8996 O   0  0  0  0  0  0  0  0  0  0  0  0
    1.1288   -0.9950    1.8893 O   0  0  0  0  0  0  0  0  0  0  0  0
    1.4014    2.1393    0.4500 O   0  0  0  0  0  0  0  0  0  0  0  0
   -0.5181    3.5807   -0.3980 H   0  0  0  0  0  0  0  0  0  0  0  0
   -0.2669    0.3072   -0.6403 H   0  0  0  0  0  0  0  0  0  0  0  0
   -1.1223    0.6803    0.8977 H   0  0  0  0  0  0  0  0  0  0  0  0
   -1.1989    3.2075   -0.3706 H   0  0  0  0  0  0  0  0  0  0  0  0
    2.6807    0.3298    2.0022 H   0  0  0  0  0  0  0  0  0  0  0  0
    1.2423    0.6998    3.0171 H   0  0  0  0  0  0  0  0  0  0  0  0
  1  3  1  0
  1  4  1  0
  1  8  1  0
  1  9  1  0
  2  3  1  0
  2  5  1  0
  2 11  1  0
  2 12  1  0
  3  6  2  0
  4  5  1  0
  7 10  1  0
M  END
