O=C1COOC1.[H][H]_15
     RDKit          3D

 12 11  0  0  0  0  0  0  0  0999 V2000
   -0.9164   -0.0404    1.5141 C   0  0  0  0  0  0  0  0  0  0  0  0
    1.1213    1.1867    1.4354 C   0  0  0  0  0  0  0  0  0  0  0  0
    0.5660   -0.2020    1.3866 C   0  0  0  0  0  0  0  0  0  0  0  0
   -1.1292    1.2223    2.1037 O   0  0  0  0  0  0  0  0  0  0  0  0
    0.1392    1.9860    2.0548 O   0  0  0  0  0  0  0  0  0  0  0  0
    1.1800   -1.2265    1.3005 O   0  0  0  0  0  0  0  0  0  0  0  0
    1.8425    2.7105   -2.1037 H   0  0  0  0  0  0  0  0  0  0  0  0
   -1.3500   -0.8083    2.1671 H   0  0  0  0  0  0  0  0  0  0  0  0
   -1.4133   -0.0509    0.5367 H   0  0  0  0  0  0  0  0  0  0  0  0
    2.3781    3.1085   -1.7060 H   0  0  0  0  0  0  0  0  0  0  0  0
    2.0388    1.2324    2.0356 H   0  0  0  0  0  0  0  0  0  0  0  0
    1.3062    1.5870    0.4316 H   0  0  0  0  0  0  0  0  0  0  0  0
  1  3  1  0
  1  4  1  0
  1  8  1  0
  1  9  1  0
  2  3  1  0
  2  5  1  0
  2 11  1  0
  2 12  1  0
  3  6  2  0
  4  5  1  0
  7 10  1  0
M  END
