O=C1COOC1.[H][H]_10
     RDKit          3D

 12 11  0  0  0  0  0  0  0  0999 V2000
   -0.2860    1.0747    0.8584 C   0  0  0  0  0  0  0  0  0  0  0  0
    1.6326    0.5019    2.1451 C   0  0  0  0  0  0  0  0  0  0  0  0
    0.1608    0.7517    2.2497 C   0  0  0  0  0  0  0  0  0  0  0  0
    0.6927    0.5439   -0.0061 O   0  0  0  0  0  0  0  0  0  0  0  0
    1.8874    0.1884    0.7945 O   0  0  0  0  0  0  0  0  0  0  0  0
   -0.5204    0.6743    3.2315 O   0  0  0  0  0  0  0  0  0  0  0  0
   -0.4903    1.8180   -2.2543 H   0  0  0  0  0  0  0  0  0  0  0  0
   -0.3431    2.1566    0.6894 H   0  0  0  0  0  0  0  0  0  0  0  0
   -1.2498    0.6043    0.6259 H   0  0  0  0  0  0  0  0  0  0  0  0
    0.1211    1.3484   -2.3499 H   0  0  0  0  0  0  0  0  0  0  0  0
    2.2170    1.3920    2.4069 H   0  0  0  0  0  0  0  0  0  0  0  0
    1.9411   -0.3490    2.7654 H   0  0  0  0  0  0  0  0  0  0  0  0
  1  3  1  0
  1  4  1  0
  1  8  1  0
  1  9  1  0
  2  3  1  0
  2  5  1  0
  2 11  1  0
  2 12  1  0
  3  6  2  0
  4  5  1  0
  7 10  1  0
M  END
