O=C1COOC1.[H][H]_0
     RDKit          3D

 12 11  0  0  0  0  0  0  0  0999 V2000
   -0.7009    0.3444    0.9692 C   0  0  0  0  0  0  0  0  0  0  0  0
    1.5492    0.7166    1.6502 C   0  0  0  0  0  0  0  0  0  0  0  0
    0.1545    1.2328    1.8172 C   0  0  0  0  0  0  0  0  0  0  0  0
    0.1590   -0.2497    0.0232 O   0  0  0  0  0  0  0  0  0  0  0  0
    1.5596   -0.0181    0.4471 O   0  0  0  0  0  0  0  0  0  0  0  0
   -0.1971    2.1777    2.4632 O   0  0  0  0  0  0  0  0  0  0  0  0
    0.9915    1.9044   -1.3001 H   0  0  0  0  0  0  0  0  0  0  0  0
   -1.4679    0.9173    0.4329 H   0  0  0  0  0  0  0  0  0  0  0  0
   -1.1681   -0.4543    1.5575 H   0  0  0  0  0  0  0  0  0  0  0  0
    0.7745    2.5555   -0.9358 H   0  0  0  0  0  0  0  0  0  0  0  0
    2.2739    1.5363    1.5654 H   0  0  0  0  0  0  0  0  0  0  0  0
    1.8350    0.0425    2.4664 H   0  0  0  0  0  0  0  0  0  0  0  0
  1  3  1  0
  1  4  1  0
  1  8  1  0
  1  9  1  0
  2  3  1  0
  2  5  1  0
  2 11  1  0
  2 12  1  0
  3  6  2  0
  4  5  1  0
  7 10  1  0
M  END
