O=C1COOC1.[H][H]_7
     RDKit          3D

 12 11  0  0  0  0  0  0  0  0999 V2000
   -0.3767    0.3046    0.7149 C   0  0  0  0  0  0  0  0  0  0  0  0
    1.6270    0.2939    1.9995 C   0  0  0  0  0  0  0  0  0  0  0  0
    0.6504    1.2058    1.3257 C   0  0  0  0  0  0  0  0  0  0  0  0
    0.2287   -0.9626    0.5928 O   0  0  0  0  0  0  0  0  0  0  0  0
    1.4768   -0.9686    1.3908 O   0  0  0  0  0  0  0  0  0  0  0  0
    0.7005    2.4004    1.2596 O   0  0  0  0  0  0  0  0  0  0  0  0
   -0.5831    3.1890   -1.2958 H   0  0  0  0  0  0  0  0  0  0  0  0
   -0.6707    0.6481   -0.2849 H   0  0  0  0  0  0  0  0  0  0  0  0
   -1.2615    0.2022    1.3544 H   0  0  0  0  0  0  0  0  0  0  0  0
   -0.1020    3.5738   -0.8226 H   0  0  0  0  0  0  0  0  0  0  0  0
    2.6605    0.6320    1.8524 H   0  0  0  0  0  0  0  0  0  0  0  0
    1.4132    0.1865    3.0696 H   0  0  0  0  0  0  0  0  0  0  0  0
  1  3  1  0
  1  4  1  0
  1  8  1  0
  1  9  1  0
  2  3  1  0
  2  5  1  0
  2 11  1  0
  2 12  1  0
  3  6  2  0
  4  5  1  0
  7 10  1  0
M  END
