O=C1COOC1.[H][H]_3
     RDKit          3D

 12 11  0  0  0  0  0  0  0  0999 V2000
   -0.3770    0.2134    0.5465 C   0  0  0  0  0  0  0  0  0  0  0  0
    1.6158    0.4233    1.8303 C   0  0  0  0  0  0  0  0  0  0  0  0
    0.9567    0.8920    0.5713 C   0  0  0  0  0  0  0  0  0  0  0  0
   -0.2664   -0.9099    1.3909 O   0  0  0  0  0  0  0  0  0  0  0  0
    0.9726   -0.7779    2.1921 O   0  0  0  0  0  0  0  0  0  0  0  0
    1.4142    1.6252   -0.2575 O   0  0  0  0  0  0  0  0  0  0  0  0
   -0.1551    3.6520   -0.1884 H   0  0  0  0  0  0  0  0  0  0  0  0
   -0.6341   -0.1318   -0.4628 H   0  0  0  0  0  0  0  0  0  0  0  0
   -1.1713    0.8597    0.9387 H   0  0  0  0  0  0  0  0  0  0  0  0
   -0.7617    3.5026    0.2733 H   0  0  0  0  0  0  0  0  0  0  0  0
    2.6816    0.2151    1.6729 H   0  0  0  0  0  0  0  0  0  0  0  0
    1.4878    1.1413    2.6492 H   0  0  0  0  0  0  0  0  0  0  0  0
  1  3  1  0
  1  4  1  0
  1  8  1  0
  1  9  1  0
  2  3  1  0
  2  5  1  0
  2 11  1  0
  2 12  1  0
  3  6  2  0
  4  5  1  0
  7 10  1  0
M  END
