O=C1COOC1.[H][H]_2
     RDKit          3D

 12 11  0  0  0  0  0  0  0  0999 V2000
   -0.6280    0.1748    0.8063 C   0  0  0  0  0  0  0  0  0  0  0  0
    1.6267    0.5265    1.4822 C   0  0  0  0  0  0  0  0  0  0  0  0
    0.6966    0.6725    0.3190 C   0  0  0  0  0  0  0  0  0  0  0  0
   -0.3581   -0.6500    1.9171 O   0  0  0  0  0  0  0  0  0  0  0  0
    1.0454   -0.4313    2.3377 O   0  0  0  0  0  0  0  0  0  0  0  0
    0.9639    1.0699   -0.7786 O   0  0  0  0  0  0  0  0  0  0  0  0
    0.1369    3.5456    0.7165 H   0  0  0  0  0  0  0  0  0  0  0  0
   -1.1385   -0.4244    0.0418 H   0  0  0  0  0  0  0  0  0  0  0  0
   -1.2754    0.9955    1.1377 H   0  0  0  0  0  0  0  0  0  0  0  0
    0.3488    3.6009   -0.0289 H   0  0  0  0  0  0  0  0  0  0  0  0
    2.6117    0.1606    1.1661 H   0  0  0  0  0  0  0  0  0  0  0  0
    1.7331    1.4647    2.0397 H   0  0  0  0  0  0  0  0  0  0  0  0
  1  3  1  0
  1  4  1  0
  1  8  1  0
  1  9  1  0
  2  3  1  0
  2  5  1  0
  2 11  1  0
  2 12  1  0
  3  6  2  0
  4  5  1  0
  7 10  1  0
M  END
