O=C1COOC1.[H][H]_12
     RDKit          3D

 12 11  0  0  0  0  0  0  0  0999 V2000
   -0.2521    1.2808    0.9122 C   0  0  0  0  0  0  0  0  0  0  0  0
    1.6169    0.5008    2.1627 C   0  0  0  0  0  0  0  0  0  0  0  0
    0.1239    0.5988    2.1903 C   0  0  0  0  0  0  0  0  0  0  0  0
    0.8346    1.1024    0.0323 O   0  0  0  0  0  0  0  0  0  0  0  0
    1.9976    0.6158    0.8102 O   0  0  0  0  0  0  0  0  0  0  0  0
   -0.6148    0.1869    3.0380 O   0  0  0  0  0  0  0  0  0  0  0  0
   -0.6025    1.2771   -2.3857 H   0  0  0  0  0  0  0  0  0  0  0  0
   -0.4058    2.3571    1.0539 H   0  0  0  0  0  0  0  0  0  0  0  0
   -1.1444    0.8274    0.4622 H   0  0  0  0  0  0  0  0  0  0  0  0
    0.1569    1.1105   -2.3842 H   0  0  0  0  0  0  0  0  0  0  0  0
    2.0896    1.3164    2.7228 H   0  0  0  0  0  0  0  0  0  0  0  0
    1.9633   -0.4689    2.5418 H   0  0  0  0  0  0  0  0  0  0  0  0
  1  3  1  0
  1  4  1  0
  1  8  1  0
  1  9  1  0
  2  3  1  0
  2  5  1  0
  2 11  1  0
  2 12  1  0
  3  6  2  0
  4  5  1  0
  7 10  1  0
M  END
