O=C1COOC1.[H][H]_14
     RDKit          3D

 12 11  0  0  0  0  0  0  0  0999 V2000
   -0.7734   -0.3388    1.7819 C   0  0  0  0  0  0  0  0  0  0  0  0
    0.7253    1.0850    0.6024 C   0  0  0  0  0  0  0  0  0  0  0  0
   -0.3903    1.0964    1.5997 C   0  0  0  0  0  0  0  0  0  0  0  0
   -0.3108   -1.0217    0.6387 O   0  0  0  0  0  0  0  0  0  0  0  0
    0.6219   -0.1353   -0.0955 O   0  0  0  0  0  0  0  0  0  0  0  0
   -0.8935    2.0533    2.1147 O   0  0  0  0  0  0  0  0  0  0  0  0
    3.3404    2.9591   -0.8463 H   0  0  0  0  0  0  0  0  0  0  0  0
   -1.8622   -0.4597    1.8443 H   0  0  0  0  0  0  0  0  0  0  0  0
   -0.2930   -0.7803    2.6632 H   0  0  0  0  0  0  0  0  0  0  0  0
    3.2621    3.2194   -0.1186 H   0  0  0  0  0  0  0  0  0  0  0  0
    0.6295    1.9080   -0.1170 H   0  0  0  0  0  0  0  0  0  0  0  0
    1.7072    1.1199    1.0890 H   0  0  0  0  0  0  0  0  0  0  0  0
  1  3  1  0
  1  4  1  0
  1  8  1  0
  1  9  1  0
  2  3  1  0
  2  5  1  0
  2 11  1  0
  2 12  1  0
  3  6  2  0
  4  5  1  0
  7 10  1  0
M  END
