O=C1COOC1.[H][H]
     RDKit          3D

 12 11  0  0  0  0  0  0  0  0999 V2000
   -0.6499    0.3351    0.9102 C   0  0  0  0  0  0  0  0  0  0  0  0
    1.5420    0.6578    1.6336 C   0  0  0  0  0  0  0  0  0  0  0  0
    0.1816    1.1261    1.7925 C   0  0  0  0  0  0  0  0  0  0  0  0
    0.2760   -0.3900    0.1359 O   0  0  0  0  0  0  0  0  0  0  0  0
    1.4088   -0.5023    0.8467 O   0  0  0  0  0  0  0  0  0  0  0  0
   -0.1941    2.0226    2.5308 O   0  0  0  0  0  0  0  0  0  0  0  0
    0.6810    2.7736   -0.8879 H   0  0  0  0  0  0  0  0  0  0  0  0
   -1.2575    0.9916    0.2526 H   0  0  0  0  0  0  0  0  0  0  0  0
   -1.2981   -0.3554    1.4905 H   0  0  0  0  0  0  0  0  0  0  0  0
    0.9275    2.2355   -1.2764 H   0  0  0  0  0  0  0  0  0  0  0  0
    2.1631    1.4150    1.1097 H   0  0  0  0  0  0  0  0  0  0  0  0
    1.9827    0.3956    2.6183 H   0  0  0  0  0  0  0  0  0  0  0  0
  1  3  1  0
  1  4  1  0
  1  8  1  0
  1  9  1  0
  2  3  1  0
  2  5  1  0
  2 11  1  0
  2 12  1  0
  3  6  2  0
  4  5  1  0
  7 10  1  0
M  END
