O=C1COOC1.[H][H]_13
     RDKit          3D

 12 11  0  0  0  0  0  0  0  0999 V2000
   -0.7675    0.5416    1.1372 C   0  0  0  0  0  0  0  0  0  0  0  0
    1.4792    0.8553    1.8575 C   0  0  0  0  0  0  0  0  0  0  0  0
    0.0721    0.7564    2.3573 C   0  0  0  0  0  0  0  0  0  0  0  0
   -0.0057    1.0028    0.0447 O   0  0  0  0  0  0  0  0  0  0  0  0
    1.3930    1.1980    0.4930 O   0  0  0  0  0  0  0  0  0  0  0  0
   -0.3052    0.8628    3.4888 O   0  0  0  0  0  0  0  0  0  0  0  0
    1.3033    1.6930   -2.7366 H   0  0  0  0  0  0  0  0  0  0  0  0
   -1.6987    1.1204    1.1827 H   0  0  0  0  0  0  0  0  0  0  0  0
   -0.9898   -0.5201    0.9767 H   0  0  0  0  0  0  0  0  0  0  0  0
    1.2359    1.6544   -1.9637 H   0  0  0  0  0  0  0  0  0  0  0  0
    2.0375    1.6420    2.3806 H   0  0  0  0  0  0  0  0  0  0  0  0
    2.0089   -0.1014    1.9382 H   0  0  0  0  0  0  0  0  0  0  0  0
  1  3  1  0
  1  4  1  0
  1  8  1  0
  1  9  1  0
  2  3  1  0
  2  5  1  0
  2 11  1  0
  2 12  1  0
  3  6  2  0
  4  5  1  0
  7 10  1  0
M  END
