O=C1COOC1.[H][H]_11
     RDKit          3D

 12 11  0  0  0  0  0  0  0  0999 V2000
   -0.8183    0.6383    1.1740 C   0  0  0  0  0  0  0  0  0  0  0  0
    1.4233    1.0403    1.8660 C   0  0  0  0  0  0  0  0  0  0  0  0
    0.1422    0.3974    2.2961 C   0  0  0  0  0  0  0  0  0  0  0  0
   -0.0362    0.9034    0.0317 O   0  0  0  0  0  0  0  0  0  0  0  0
    1.3592    1.1537    0.4625 O   0  0  0  0  0  0  0  0  0  0  0  0
   -0.0604   -0.2116    3.3071 O   0  0  0  0  0  0  0  0  0  0  0  0
    1.5136    1.6224   -2.7286 H   0  0  0  0  0  0  0  0  0  0  0  0
   -1.4561    1.5100    1.3631 H   0  0  0  0  0  0  0  0  0  0  0  0
   -1.4363   -0.2467    0.9764 H   0  0  0  0  0  0  0  0  0  0  0  0
    1.3049    1.4296   -2.0057 H   0  0  0  0  0  0  0  0  0  0  0  0
    1.5360    2.0466    2.2867 H   0  0  0  0  0  0  0  0  0  0  0  0
    2.2912    0.4218    2.1272 H   0  0  0  0  0  0  0  0  0  0  0  0
  1  3  1  0
  1  4  1  0
  1  8  1  0
  1  9  1  0
  2  3  1  0
  2  5  1  0
  2 11  1  0
  2 12  1  0
  3  6  2  0
  4  5  1  0
  7 10  1  0
M  END
