O=C1COOC1.[H][H]_5
     RDKit          3D

 12 11  0  0  0  0  0  0  0  0999 V2000
   -0.3244    0.2955    0.5808 C   0  0  0  0  0  0  0  0  0  0  0  0
    1.6791    0.3461    1.8641 C   0  0  0  0  0  0  0  0  0  0  0  0
    0.5357    1.1975    1.4092 C   0  0  0  0  0  0  0  0  0  0  0  0
   -0.0049   -1.0221    0.9667 O   0  0  0  0  0  0  0  0  0  0  0  0
    1.2432   -0.9908    1.7641 O   0  0  0  0  0  0  0  0  0  0  0  0
    0.3337    2.3462    1.6808 O   0  0  0  0  0  0  0  0  0  0  0  0
   -0.2943    3.5691   -0.4668 H   0  0  0  0  0  0  0  0  0  0  0  0
   -0.1127    0.3996   -0.4900 H   0  0  0  0  0  0  0  0  0  0  0  0
   -1.3909    0.4675    0.7740 H   0  0  0  0  0  0  0  0  0  0  0  0
   -0.4030    3.0772   -1.0581 H   0  0  0  0  0  0  0  0  0  0  0  0
    2.5596    0.4689    1.2222 H   0  0  0  0  0  0  0  0  0  0  0  0
    1.9419    0.5506    2.9096 H   0  0  0  0  0  0  0  0  0  0  0  0
  1  3  1  0
  1  4  1  0
  1  8  1  0
  1  9  1  0
  2  3  1  0
  2  5  1  0
  2 11  1  0
  2 12  1  0
  3  6  2  0
  4  5  1  0
  7 10  1  0
M  END
