O=C1COOC1.[H][H]_8
     RDKit          3D

 12 11  0  0  0  0  0  0  0  0999 V2000
   -0.3501    1.1423    0.8964 C   0  0  0  0  0  0  0  0  0  0  0  0
    1.5943    0.4789    2.0979 C   0  0  0  0  0  0  0  0  0  0  0  0
    0.1451    0.8105    2.2691 C   0  0  0  0  0  0  0  0  0  0  0  0
    0.7865    1.4863    0.1369 O   0  0  0  0  0  0  0  0  0  0  0  0
    1.9968    1.0709    0.8834 O   0  0  0  0  0  0  0  0  0  0  0  0
   -0.4769    0.8393    3.2920 O   0  0  0  0  0  0  0  0  0  0  0  0
   -0.3870    1.0467   -2.3631 H   0  0  0  0  0  0  0  0  0  0  0  0
   -1.0330    2.0011    0.9115 H   0  0  0  0  0  0  0  0  0  0  0  0
   -0.8349    0.2824    0.4190 H   0  0  0  0  0  0  0  0  0  0  0  0
    0.3615    1.2501   -2.3196 H   0  0  0  0  0  0  0  0  0  0  0  0
    2.2016    0.8992    2.9094 H   0  0  0  0  0  0  0  0  0  0  0  0
    1.7592   -0.6026    2.0237 H   0  0  0  0  0  0  0  0  0  0  0  0
  1  3  1  0
  1  4  1  0
  1  8  1  0
  1  9  1  0
  2  3  1  0
  2  5  1  0
  2 11  1  0
  2 12  1  0
  3  6  2  0
  4  5  1  0
  7 10  1  0
M  END
