O=CCC(O)O_2
     RDKit          3D

 12 11  0  0  0  0  0  0  0  0999 V2000
    1.1681   -0.6953    0.7138 C   0  0  0  0  0  0  0  0  0  0  0  0
    0.1011    0.3458    0.3632 C   0  0  0  0  0  0  0  0  0  0  0  0
    0.4034    1.6658    0.9753 C   0  0  0  0  0  0  0  0  0  0  0  0
    0.9148   -1.9228    0.0534 O   0  0  0  0  0  0  0  0  0  0  0  0
    1.2945   -0.8406    2.1165 O   0  0  0  0  0  0  0  0  0  0  0  0
    0.7723    1.8152    2.1010 O   0  0  0  0  0  0  0  0  0  0  0  0
    1.2431    0.0498    2.5235 H   0  0  0  0  0  0  0  0  0  0  0  0
    1.3367   -2.6416    0.5643 H   0  0  0  0  0  0  0  0  0  0  0  0
    2.1501   -0.3435    0.3495 H   0  0  0  0  0  0  0  0  0  0  0  0
    0.2471    2.5746    0.4058 H   0  0  0  0  0  0  0  0  0  0  0  0
   -0.8584   -0.0198    0.7405 H   0  0  0  0  0  0  0  0  0  0  0  0
    0.0039    0.4205   -0.7249 H   0  0  0  0  0  0  0  0  0  0  0  0
  1  2  1  0
  1  4  1  0
  1  5  1  0
  1  9  1  0
  2  3  1  0
  2 11  1  0
  2 12  1  0
  3  6  2  0
  3 10  1  0
  4  8  1  0
  5  7  1  0
M  END
