O=CCC(O)O_8
     RDKit          3D

 12 11  0  0  0  0  0  0  0  0999 V2000
    1.3478   -0.7372    0.7544 C   0  0  0  0  0  0  0  0  0  0  0  0
    0.6529    0.4718    0.1166 C   0  0  0  0  0  0  0  0  0  0  0  0
   -0.0863    1.2368    1.1518 C   0  0  0  0  0  0  0  0  0  0  0  0
    0.4019   -1.6388    1.3008 O   0  0  0  0  0  0  0  0  0  0  0  0
    2.2941   -0.2947    1.7016 O   0  0  0  0  0  0  0  0  0  0  0  0
    0.3595    1.5116    2.2235 O   0  0  0  0  0  0  0  0  0  0  0  0
    1.8085    0.2155    2.3812 H   0  0  0  0  0  0  0  0  0  0  0  0
   -0.2417   -1.9418    0.6239 H   0  0  0  0  0  0  0  0  0  0  0  0
    1.9324   -1.2973    0.0036 H   0  0  0  0  0  0  0  0  0  0  0  0
   -1.0817    1.6119    0.9433 H   0  0  0  0  0  0  0  0  0  0  0  0
   -0.0189    0.1466   -0.6843 H   0  0  0  0  0  0  0  0  0  0  0  0
    1.4082    1.1235   -0.3344 H   0  0  0  0  0  0  0  0  0  0  0  0
  1  2  1  0
  1  4  1  0
  1  5  1  0
  1  9  1  0
  2  3  1  0
  2 11  1  0
  2 12  1  0
  3  6  2  0
  3 10  1  0
  4  8  1  0
  5  7  1  0
M  END
