O=CCC(O)O_4
     RDKit          3D

 12 11  0  0  0  0  0  0  0  0999 V2000
    1.2415   -0.5795    0.7374 C   0  0  0  0  0  0  0  0  0  0  0  0
    0.1243    0.4167    0.4124 C   0  0  0  0  0  0  0  0  0  0  0  0
    0.3745    1.7666    0.9689 C   0  0  0  0  0  0  0  0  0  0  0  0
    0.9933   -1.8257    0.1165 O   0  0  0  0  0  0  0  0  0  0  0  0
    1.4527   -0.6937    2.1288 O   0  0  0  0  0  0  0  0  0  0  0  0
   -0.2559    2.7394    0.6796 O   0  0  0  0  0  0  0  0  0  0  0  0
    0.6891   -1.1535    2.5323 H   0  0  0  0  0  0  0  0  0  0  0  0
    1.6531   -2.4801    0.4231 H   0  0  0  0  0  0  0  0  0  0  0  0
    2.1907   -0.1957    0.3250 H   0  0  0  0  0  0  0  0  0  0  0  0
    1.1382    1.8935    1.7277 H   0  0  0  0  0  0  0  0  0  0  0  0
   -0.8219    0.0315    0.8028 H   0  0  0  0  0  0  0  0  0  0  0  0
   -0.0028    0.4885   -0.6725 H   0  0  0  0  0  0  0  0  0  0  0  0
  1  2  1  0
  1  4  1  0
  1  5  1  0
  1  9  1  0
  2  3  1  0
  2 11  1  0
  2 12  1  0
  3  6  2  0
  3 10  1  0
  4  8  1  0
  5  7  1  0
M  END
