O=CCC(O)O_5
     RDKit          3D

 12 11  0  0  0  0  0  0  0  0999 V2000
    1.0158   -0.6959    0.6852 C   0  0  0  0  0  0  0  0  0  0  0  0
    0.9437    0.8339    0.7200 C   0  0  0  0  0  0  0  0  0  0  0  0
   -0.4417    1.3430    0.5911 C   0  0  0  0  0  0  0  0  0  0  0  0
    0.2385   -1.2626    1.7221 O   0  0  0  0  0  0  0  0  0  0  0  0
    2.3524   -1.1515    0.6915 O   0  0  0  0  0  0  0  0  0  0  0  0
   -0.7241    2.4439    0.2222 O   0  0  0  0  0  0  0  0  0  0  0  0
    2.7445   -0.9840    1.5723 H   0  0  0  0  0  0  0  0  0  0  0  0
    0.3960   -2.2276    1.7571 H   0  0  0  0  0  0  0  0  0  0  0  0
    0.5841   -1.0494   -0.2673 H   0  0  0  0  0  0  0  0  0  0  0  0
   -1.2645    0.7137    0.9107 H   0  0  0  0  0  0  0  0  0  0  0  0
    1.5586    1.2532   -0.0828 H   0  0  0  0  0  0  0  0  0  0  0  0
    1.3736    1.1912    1.6601 H   0  0  0  0  0  0  0  0  0  0  0  0
  1  2  1  0
  1  4  1  0
  1  5  1  0
  1  9  1  0
  2  3  1  0
  2 11  1  0
  2 12  1  0
  3  6  2  0
  3 10  1  0
  4  8  1  0
  5  7  1  0
M  END
