O=CCC(O)O_6
     RDKit          3D

 12 11  0  0  0  0  0  0  0  0999 V2000
    1.0485   -0.6575    0.7345 C   0  0  0  0  0  0  0  0  0  0  0  0
    0.9227    0.8673    0.7658 C   0  0  0  0  0  0  0  0  0  0  0  0
   -0.4725    1.2922    0.4984 C   0  0  0  0  0  0  0  0  0  0  0  0
    0.2885   -1.2458    1.7710 O   0  0  0  0  0  0  0  0  0  0  0  0
    2.3981   -1.0713    0.7453 O   0  0  0  0  0  0  0  0  0  0  0  0
   -0.9752    1.2564   -0.5838 O   0  0  0  0  0  0  0  0  0  0  0  0
    2.7788   -0.8986    1.6302 H   0  0  0  0  0  0  0  0  0  0  0  0
    0.4373   -2.2130    1.7774 H   0  0  0  0  0  0  0  0  0  0  0  0
    0.6281   -1.0206   -0.2210 H   0  0  0  0  0  0  0  0  0  0  0  0
   -1.1263    1.5621    1.3204 H   0  0  0  0  0  0  0  0  0  0  0  0
    1.5817    1.3015    0.0070 H   0  0  0  0  0  0  0  0  0  0  0  0
    1.2672    1.2352    1.7369 H   0  0  0  0  0  0  0  0  0  0  0  0
  1  2  1  0
  1  4  1  0
  1  5  1  0
  1  9  1  0
  2  3  1  0
  2 11  1  0
  2 12  1  0
  3  6  2  0
  3 10  1  0
  4  8  1  0
  5  7  1  0
M  END
