O=CCC(O)O
     RDKit          3D

 12 11  0  0  0  0  0  0  0  0999 V2000
    1.2836   -0.6193    0.8633 C   0  0  0  0  0  0  0  0  0  0  0  0
    0.6320    0.5658    0.1362 C   0  0  0  0  0  0  0  0  0  0  0  0
   -0.2721    1.3580    1.0366 C   0  0  0  0  0  0  0  0  0  0  0  0
    0.3013   -1.4531    1.4233 O   0  0  0  0  0  0  0  0  0  0  0  0
    2.1300   -0.1471    1.8764 O   0  0  0  0  0  0  0  0  0  0  0  0
    0.1866    2.0019    1.9668 O   0  0  0  0  0  0  0  0  0  0  0  0
    2.6146   -0.9388    2.2284 H   0  0  0  0  0  0  0  0  0  0  0  0
   -0.1074   -1.9572    0.6718 H   0  0  0  0  0  0  0  0  0  0  0  0
    1.8916   -1.1924    0.1223 H   0  0  0  0  0  0  0  0  0  0  0  0
   -1.3410    1.3748    0.8503 H   0  0  0  0  0  0  0  0  0  0  0  0
    0.0372    0.1816   -0.7204 H   0  0  0  0  0  0  0  0  0  0  0  0
    1.4204    1.2338   -0.2730 H   0  0  0  0  0  0  0  0  0  0  0  0
  1  2  1  0
  1  4  1  0
  1  5  1  0
  1  9  1  0
  2  3  1  0
  2 11  1  0
  2 12  1  0
  3  6  2  0
  3 10  1  0
  4  8  1  0
  5  7  1  0
M  END
