O=CCC(O)O_3
     RDKit          3D

 12 11  0  0  0  0  0  0  0  0999 V2000
    1.3040   -0.6587    0.7055 C   0  0  0  0  0  0  0  0  0  0  0  0
    0.1632    0.3000    0.3484 C   0  0  0  0  0  0  0  0  0  0  0  0
    0.3452    1.6248    0.9965 C   0  0  0  0  0  0  0  0  0  0  0  0
    1.1886   -1.8856    0.0054 O   0  0  0  0  0  0  0  0  0  0  0  0
    1.3904   -0.8318    2.1077 O   0  0  0  0  0  0  0  0  0  0  0  0
    0.6771    1.7753    2.1335 O   0  0  0  0  0  0  0  0  0  0  0  0
    1.2885    0.0444    2.5358 H   0  0  0  0  0  0  0  0  0  0  0  0
    0.7118   -2.5214    0.5751 H   0  0  0  0  0  0  0  0  0  0  0  0
    2.2645   -0.2210    0.3796 H   0  0  0  0  0  0  0  0  0  0  0  0
    0.1294    2.5320    0.4442 H   0  0  0  0  0  0  0  0  0  0  0  0
   -0.7757   -0.1445    0.6904 H   0  0  0  0  0  0  0  0  0  0  0  0
    0.0897    0.3946   -0.7401 H   0  0  0  0  0  0  0  0  0  0  0  0
  1  2  1  0
  1  4  1  0
  1  5  1  0
  1  9  1  0
  2  3  1  0
  2 11  1  0
  2 12  1  0
  3  6  2  0
  3 10  1  0
  4  8  1  0
  5  7  1  0
M  END
