O=CCC(O)O_7
     RDKit          3D

 12 11  0  0  0  0  0  0  0  0999 V2000
    1.2713   -0.5192    0.8429 C   0  0  0  0  0  0  0  0  0  0  0  0
    0.1596    0.3949    0.3223 C   0  0  0  0  0  0  0  0  0  0  0  0
    0.2140    1.7313    0.9626 C   0  0  0  0  0  0  0  0  0  0  0  0
    1.3577   -1.6971    0.0654 O   0  0  0  0  0  0  0  0  0  0  0  0
    1.1301   -0.7856    2.2214 O   0  0  0  0  0  0  0  0  0  0  0  0
    1.0399    2.5526    0.7002 O   0  0  0  0  0  0  0  0  0  0  0  0
    0.3603   -1.3747    2.3576 H   0  0  0  0  0  0  0  0  0  0  0  0
    2.0078   -2.3071    0.4690 H   0  0  0  0  0  0  0  0  0  0  0  0
    2.2347    0.0131    0.7415 H   0  0  0  0  0  0  0  0  0  0  0  0
   -0.4616    1.9748    1.7746 H   0  0  0  0  0  0  0  0  0  0  0  0
   -0.8090   -0.0870    0.4850 H   0  0  0  0  0  0  0  0  0  0  0  0
    0.2721    0.5120   -0.7605 H   0  0  0  0  0  0  0  0  0  0  0  0
  1  2  1  0
  1  4  1  0
  1  5  1  0
  1  9  1  0
  2  3  1  0
  2 11  1  0
  2 12  1  0
  3  6  2  0
  3 10  1  0
  4  8  1  0
  5  7  1  0
M  END
