O=CCC(O)O_1
     RDKit          3D

 12 11  0  0  0  0  0  0  0  0999 V2000
    1.2133   -0.7371    0.6070 C   0  0  0  0  0  0  0  0  0  0  0  0
    0.6725    0.5908    0.0644 C   0  0  0  0  0  0  0  0  0  0  0  0
   -0.0800    1.3040    1.1281 C   0  0  0  0  0  0  0  0  0  0  0  0
    0.1462   -1.6037    0.9400 O   0  0  0  0  0  0  0  0  0  0  0  0
    2.0884   -0.5056    1.6896 O   0  0  0  0  0  0  0  0  0  0  0  0
    0.3429    1.4993    2.2267 O   0  0  0  0  0  0  0  0  0  0  0  0
    1.6355    0.1120    2.2988 H   0  0  0  0  0  0  0  0  0  0  0  0
    0.4783   -2.3071    1.5330 H   0  0  0  0  0  0  0  0  0  0  0  0
    1.8129   -1.2534   -0.1631 H   0  0  0  0  0  0  0  0  0  0  0  0
   -1.0737    1.6885    0.9279 H   0  0  0  0  0  0  0  0  0  0  0  0
    0.0340    0.4020   -0.8048 H   0  0  0  0  0  0  0  0  0  0  0  0
    1.5065    1.2182   -0.2656 H   0  0  0  0  0  0  0  0  0  0  0  0
  1  2  1  0
  1  4  1  0
  1  5  1  0
  1  9  1  0
  2  3  1  0
  2 11  1  0
  2 12  1  0
  3  6  2  0
  3 10  1  0
  4  8  1  0
  5  7  1  0
M  END
