C=O.OC(=C)O_0
     RDKit          3D

 12 10  0  0  0  0  0  0  0  0999 V2000
   -3.4484   -0.0315    3.9542 C   0  0  0  0  0  0  0  0  0  0  0  0
    0.0762   -0.2141   -0.8606 C   0  0  0  0  0  0  0  0  0  0  0  0
   -0.7184   -0.1896    0.2254 C   0  0  0  0  0  0  0  0  0  0  0  0
   -2.7489   -0.1224    2.9994 O   0  0  0  0  0  0  0  0  0  0  0  0
   -1.1259    1.0051    0.7649 O   0  0  0  0  0  0  0  0  0  0  0  0
   -1.1350   -1.3590    0.8116 O   0  0  0  0  0  0  0  0  0  0  0  0
   -1.6937    0.7888    1.5441 H   0  0  0  0  0  0  0  0  0  0  0  0
   -3.7969   -0.9284    4.4446 H   0  0  0  0  0  0  0  0  0  0  0  0
   -3.7261    0.9464    4.3186 H   0  0  0  0  0  0  0  0  0  0  0  0
   -1.7011   -1.1091    1.5816 H   0  0  0  0  0  0  0  0  0  0  0  0
    0.3909   -1.1477   -1.2773 H   0  0  0  0  0  0  0  0  0  0  0  0
    0.3981    0.6998   -1.3139 H   0  0  0  0  0  0  0  0  0  0  0  0
  1  4  2  0
  1  8  1  0
  1  9  1  0
  2  3  2  0
  2 11  1  0
  2 12  1  0
  3  5  1  0
  3  6  1  0
  5  7  1  0
  6 10  1  0
M  END
