C=O.OC(=C)O_1
     RDKit          3D

 12 10  0  0  0  0  0  0  0  0999 V2000
   -3.1943   -0.0476    3.8953 C   0  0  0  0  0  0  0  0  0  0  0  0
    0.0746   -0.0618   -0.7271 C   0  0  0  0  0  0  0  0  0  0  0  0
   -0.8390   -0.1812    0.2539 C   0  0  0  0  0  0  0  0  0  0  0  0
   -3.1636   -0.4706    2.7861 O   0  0  0  0  0  0  0  0  0  0  0  0
   -1.8568    0.7315    0.3756 O   0  0  0  0  0  0  0  0  0  0  0  0
   -0.7686   -1.2166    1.1520 O   0  0  0  0  0  0  0  0  0  0  0  0
   -2.4065    0.4471    1.1458 H   0  0  0  0  0  0  0  0  0  0  0  0
   -2.3762    0.5548    4.2615 H   0  0  0  0  0  0  0  0  0  0  0  0
   -4.0434   -0.2731    4.5232 H   0  0  0  0  0  0  0  0  0  0  0  0
   -1.5342   -1.1144    1.7682 H   0  0  0  0  0  0  0  0  0  0  0  0
    0.8650   -0.7769   -0.8172 H   0  0  0  0  0  0  0  0  0  0  0  0
    0.0138    0.7469   -1.4246 H   0  0  0  0  0  0  0  0  0  0  0  0
  1  4  2  0
  1  8  1  0
  1  9  1  0
  2  3  2  0
  2 11  1  0
  2 12  1  0
  3  5  1  0
  3  6  1  0
  5  7  1  0
  6 10  1  0
M  END
