C/C=C/N
     RDKit          3D

 11 10  0  0  0  0  0  0  0  0999 V2000
   -0.8386   -0.8080    0.7985 C   0  0  0  0  0  0  0  0  0  0  0  0
    1.0688    2.4606    0.7337 N   0  0  0  0  0  0  0  0  0  0  0  0
   -0.2851    0.5270    1.1796 C   0  0  0  0  0  0  0  0  0  0  0  0
    0.5418    1.1855    0.3668 C   0  0  0  0  0  0  0  0  0  0  0  0
    0.8219    2.9097    1.6442 H   0  0  0  0  0  0  0  0  0  0  0  0
    1.7146    2.9598    0.0833 H   0  0  0  0  0  0  0  0  0  0  0  0
   -1.4293   -0.7206   -0.1379 H   0  0  0  0  0  0  0  0  0  0  0  0
   -1.5008   -1.1836    1.6064 H   0  0  0  0  0  0  0  0  0  0  0  0
   -0.5663    0.9578    2.1332 H   0  0  0  0  0  0  0  0  0  0  0  0
   -0.0108   -1.5328    0.6473 H   0  0  0  0  0  0  0  0  0  0  0  0
    0.8233    0.7550   -0.5871 H   0  0  0  0  0  0  0  0  0  0  0  0
  1  3  1  0
  1  7  1  0
  1  8  1  0
  1 10  1  0
  2  4  1  0
  2  5  1  0
  2  6  1  0
  3  4  2  0
  3  9  1  0
  4 11  1  0
M  END
