C=O.C.O=C=O_13
     RDKit          3D

 12  9  0  0  0  0  0  0  0  0999 V2000
   -0.3460    1.4177    3.7417 C   0  0  0  0  0  0  0  0  0  0  0  0
   -2.8591   -1.5687   -1.5557 C   0  0  0  0  0  0  0  0  0  0  0  0
   -0.9692    0.2673    0.5960 C   0  0  0  0  0  0  0  0  0  0  0  0
    0.0557    1.9246    2.7452 O   0  0  0  0  0  0  0  0  0  0  0  0
   -0.5467    0.8026   -0.3427 O   0  0  0  0  0  0  0  0  0  0  0  0
   -1.4018   -0.2833    1.5208 O   0  0  0  0  0  0  0  0  0  0  0  0
   -3.4693   -2.1265   -2.2634 H   0  0  0  0  0  0  0  0  0  0  0  0
   -0.9599    0.5317    3.6734 H   0  0  0  0  0  0  0  0  0  0  0  0
   -0.0931    1.8467    4.6986 H   0  0  0  0  0  0  0  0  0  0  0  0
   -2.1072   -2.2283   -1.1263 H   0  0  0  0  0  0  0  0  0  0  0  0
   -3.4921   -1.1751   -0.7624 H   0  0  0  0  0  0  0  0  0  0  0  0
   -2.3680   -0.7452   -2.0707 H   0  0  0  0  0  0  0  0  0  0  0  0
  1  4  2  0
  1  8  1  0
  1  9  1  0
  2  7  1  0
  2 10  1  0
  2 11  1  0
  2 12  1  0
  3  5  2  0
  3  6  2  0
M  END
