C=O.C.O=C=O_2
     RDKit          3D

 12  9  0  0  0  0  0  0  0  0999 V2000
   -1.5104    0.8333    2.6788 C   0  0  0  0  0  0  0  0  0  0  0  0
   -2.6957   -1.1990   -0.2488 C   0  0  0  0  0  0  0  0  0  0  0  0
    0.2970    0.4730   -0.1880 C   0  0  0  0  0  0  0  0  0  0  0  0
   -0.8573   -0.1258    2.4243 O   0  0  0  0  0  0  0  0  0  0  0  0
   -0.2761    1.4573    0.0319 O   0  0  0  0  0  0  0  0  0  0  0  0
    0.8761   -0.5035   -0.4271 O   0  0  0  0  0  0  0  0  0  0  0  0
   -3.6703   -1.6822   -0.2148 H   0  0  0  0  0  0  0  0  0  0  0  0
   -1.5134    1.6676    1.9929 H   0  0  0  0  0  0  0  0  0  0  0  0
   -2.0950    0.8563    3.5852 H   0  0  0  0  0  0  0  0  0  0  0  0
   -2.8263   -0.1183   -0.2625 H   0  0  0  0  0  0  0  0  0  0  0  0
   -2.1661   -1.5121   -1.1467 H   0  0  0  0  0  0  0  0  0  0  0  0
   -2.1191   -1.4833    0.6293 H   0  0  0  0  0  0  0  0  0  0  0  0
  1  4  2  0
  1  8  1  0
  1  9  1  0
  2  7  1  0
  2 10  1  0
  2 11  1  0
  2 12  1  0
  3  5  2  0
  3  6  2  0
M  END
