C=O.C.O=C=O_11
     RDKit          3D

 12  9  0  0  0  0  0  0  0  0999 V2000
   -0.3466    1.4134    3.6728 C   0  0  0  0  0  0  0  0  0  0  0  0
   -2.8609   -1.6752   -1.4204 C   0  0  0  0  0  0  0  0  0  0  0  0
   -0.9548    0.4431    0.4609 C   0  0  0  0  0  0  0  0  0  0  0  0
   -0.2878    2.1339    2.7301 O   0  0  0  0  0  0  0  0  0  0  0  0
   -0.8837    1.1862   -0.4274 O   0  0  0  0  0  0  0  0  0  0  0  0
   -1.0316   -0.3164    1.3342 O   0  0  0  0  0  0  0  0  0  0  0  0
   -2.1089   -1.1885   -2.0387 H   0  0  0  0  0  0  0  0  0  0  0  0
   -0.6148    0.3771    3.5298 H   0  0  0  0  0  0  0  0  0  0  0  0
   -0.1322    1.8018    4.6562 H   0  0  0  0  0  0  0  0  0  0  0  0
   -2.3738   -2.1950   -0.5975 H   0  0  0  0  0  0  0  0  0  0  0  0
   -3.4177   -2.3906   -2.0224 H   0  0  0  0  0  0  0  0  0  0  0  0
   -3.5438   -0.9264   -1.0232 H   0  0  0  0  0  0  0  0  0  0  0  0
  1  4  2  0
  1  8  1  0
  1  9  1  0
  2  7  1  0
  2 10  1  0
  2 11  1  0
  2 12  1  0
  3  5  2  0
  3  6  2  0
M  END
