C=O.C.O=C=O_15
     RDKit          3D

 12  9  0  0  0  0  0  0  0  0999 V2000
   -1.6826    0.7319    2.6933 C   0  0  0  0  0  0  0  0  0  0  0  0
   -2.8667   -1.3877   -0.1112 C   0  0  0  0  0  0  0  0  0  0  0  0
    0.8045    0.8896   -0.4128 C   0  0  0  0  0  0  0  0  0  0  0  0
   -0.9906    0.7834    1.7297 O   0  0  0  0  0  0  0  0  0  0  0  0
    1.5472    1.5180    0.2194 O   0  0  0  0  0  0  0  0  0  0  0  0
    0.0816    0.2622   -1.0684 O   0  0  0  0  0  0  0  0  0  0  0  0
   -2.9537   -1.9818   -1.0190 H   0  0  0  0  0  0  0  0  0  0  0  0
   -2.6655    0.2922    2.6195 H   0  0  0  0  0  0  0  0  0  0  0  0
   -1.3188    1.1242    3.6306 H   0  0  0  0  0  0  0  0  0  0  0  0
   -1.9811   -0.7587   -0.1742 H   0  0  0  0  0  0  0  0  0  0  0  0
   -2.7811   -2.0493    0.7491 H   0  0  0  0  0  0  0  0  0  0  0  0
   -3.7497   -0.7605   -0.0015 H   0  0  0  0  0  0  0  0  0  0  0  0
  1  4  2  0
  1  8  1  0
  1  9  1  0
  2  7  1  0
  2 10  1  0
  2 11  1  0
  2 12  1  0
  3  5  2  0
  3  6  2  0
M  END
