C=O.C.O=C=O_9
     RDKit          3D

 12  9  0  0  0  0  0  0  0  0999 V2000
   -0.5052    1.8967    3.4853 C   0  0  0  0  0  0  0  0  0  0  0  0
   -2.8363   -1.6223   -1.5143 C   0  0  0  0  0  0  0  0  0  0  0  0
   -0.8105   -0.2547    0.8593 C   0  0  0  0  0  0  0  0  0  0  0  0
    0.3751    1.6165    2.7385 O   0  0  0  0  0  0  0  0  0  0  0  0
   -1.7190   -0.0228    1.5422 O   0  0  0  0  0  0  0  0  0  0  0  0
    0.0851   -0.5008    0.1639 O   0  0  0  0  0  0  0  0  0  0  0  0
   -3.1275   -0.5845   -1.3627 H   0  0  0  0  0  0  0  0  0  0  0  0
   -0.3150    2.5700    4.3065 H   0  0  0  0  0  0  0  0  0  0  0  0
   -1.4854    1.4703    3.3303 H   0  0  0  0  0  0  0  0  0  0  0  0
   -2.9519   -2.1716   -0.5816 H   0  0  0  0  0  0  0  0  0  0  0  0
   -1.7968   -1.6647   -1.8341 H   0  0  0  0  0  0  0  0  0  0  0  0
   -3.4693   -2.0686   -2.2788 H   0  0  0  0  0  0  0  0  0  0  0  0
  1  4  2  0
  1  8  1  0
  1  9  1  0
  2  7  1  0
  2 10  1  0
  2 11  1  0
  2 12  1  0
  3  5  2  0
  3  6  2  0
M  END
