C=O.C.O=C=O_8
     RDKit          3D

 12  9  0  0  0  0  0  0  0  0999 V2000
   -0.1951    1.6441    3.5035 C   0  0  0  0  0  0  0  0  0  0  0  0
   -3.0170   -1.7476   -1.2877 C   0  0  0  0  0  0  0  0  0  0  0  0
   -0.9039    0.2650    0.4677 C   0  0  0  0  0  0  0  0  0  0  0  0
    0.1221    2.1160    2.4606 O   0  0  0  0  0  0  0  0  0  0  0  0
   -0.5747    0.7666   -0.5253 O   0  0  0  0  0  0  0  0  0  0  0  0
   -1.2428   -0.2535    1.4485 O   0  0  0  0  0  0  0  0  0  0  0  0
   -3.6087   -1.0539   -0.6931 H   0  0  0  0  0  0  0  0  0  0  0  0
    0.0671    2.1490    4.4202 H   0  0  0  0  0  0  0  0  0  0  0  0
   -0.7439    0.7141    3.5176 H   0  0  0  0  0  0  0  0  0  0  0  0
   -2.3810   -1.1885   -1.9714 H   0  0  0  0  0  0  0  0  0  0  0  0
   -3.6811   -2.3946   -1.8574 H   0  0  0  0  0  0  0  0  0  0  0  0
   -2.3976   -2.3534   -0.6288 H   0  0  0  0  0  0  0  0  0  0  0  0
  1  4  2  0
  1  8  1  0
  1  9  1  0
  2  7  1  0
  2 10  1  0
  2 11  1  0
  2 12  1  0
  3  5  2  0
  3  6  2  0
M  END
