C=O.C.O=C=O_1
     RDKit          3D

 12  9  0  0  0  0  0  0  0  0999 V2000
   -1.1989    0.3124    2.9720 C   0  0  0  0  0  0  0  0  0  0  0  0
   -2.7364   -1.1239   -0.0744 C   0  0  0  0  0  0  0  0  0  0  0  0
    0.0068    1.0328   -0.8971 C   0  0  0  0  0  0  0  0  0  0  0  0
   -2.1474   -0.3112    3.3198 O   0  0  0  0  0  0  0  0  0  0  0  0
    0.0656    1.0299   -2.0558 O   0  0  0  0  0  0  0  0  0  0  0  0
   -0.0510    1.0364    0.2610 O   0  0  0  0  0  0  0  0  0  0  0  0
   -2.8091   -0.0784   -0.3692 H   0  0  0  0  0  0  0  0  0  0  0  0
   -0.5434    0.7496    3.7085 H   0  0  0  0  0  0  0  0  0  0  0  0
   -1.0061    0.4332    1.9176 H   0  0  0  0  0  0  0  0  0  0  0  0
   -1.7063   -1.4605   -0.1784 H   0  0  0  0  0  0  0  0  0  0  0  0
   -3.3808   -1.7261   -0.7118 H   0  0  0  0  0  0  0  0  0  0  0  0
   -3.0497   -1.2309    0.9623 H   0  0  0  0  0  0  0  0  0  0  0  0
  1  4  2  0
  1  8  1  0
  1  9  1  0
  2  7  1  0
  2 10  1  0
  2 11  1  0
  2 12  1  0
  3  5  2  0
  3  6  2  0
M  END
