C=O.C.O=C=O_14
     RDKit          3D

 12  9  0  0  0  0  0  0  0  0999 V2000
   -1.3606    0.6566    1.8388 C   0  0  0  0  0  0  0  0  0  0  0  0
   -3.5276   -1.8456    0.1260 C   0  0  0  0  0  0  0  0  0  0  0  0
    1.4884    1.7597    0.3284 C   0  0  0  0  0  0  0  0  0  0  0  0
   -1.0399    0.3974    0.7248 O   0  0  0  0  0  0  0  0  0  0  0  0
    1.2451    2.0666    1.4202 O   0  0  0  0  0  0  0  0  0  0  0  0
    1.7509    1.4645   -0.7624 O   0  0  0  0  0  0  0  0  0  0  0  0
   -2.6424   -1.3450   -0.2616 H   0  0  0  0  0  0  0  0  0  0  0  0
   -2.2731    0.2455    2.2415 H   0  0  0  0  0  0  0  0  0  0  0  0
   -0.7302    1.3008    2.4336 H   0  0  0  0  0  0  0  0  0  0  0  0
   -3.9254   -2.5174   -0.6324 H   0  0  0  0  0  0  0  0  0  0  0  0
   -4.2803   -1.1028    0.3840 H   0  0  0  0  0  0  0  0  0  0  0  0
   -3.2615   -2.4169    1.0136 H   0  0  0  0  0  0  0  0  0  0  0  0
  1  4  2  0
  1  8  1  0
  1  9  1  0
  2  7  1  0
  2 10  1  0
  2 11  1  0
  2 12  1  0
  3  5  2  0
  3  6  2  0
M  END
