C=O.C.O=C=O_10
     RDKit          3D

 12  9  0  0  0  0  0  0  0  0999 V2000
   -0.3954    1.4772    3.7223 C   0  0  0  0  0  0  0  0  0  0  0  0
   -2.7521   -1.7081   -1.5160 C   0  0  0  0  0  0  0  0  0  0  0  0
   -1.0758    0.4161    0.5553 C   0  0  0  0  0  0  0  0  0  0  0  0
   -0.1840    2.1110    2.7401 O   0  0  0  0  0  0  0  0  0  0  0  0
   -0.8499    1.0756   -0.3722 O   0  0  0  0  0  0  0  0  0  0  0  0
   -1.3098   -0.2595    1.4687 O   0  0  0  0  0  0  0  0  0  0  0  0
   -2.4972   -0.7837   -2.0312 H   0  0  0  0  0  0  0  0  0  0  0  0
   -0.8334    0.4940    3.6326 H   0  0  0  0  0  0  0  0  0  0  0  0
   -0.1479    1.8899    4.6880 H   0  0  0  0  0  0  0  0  0  0  0  0
   -3.3337   -2.3447   -2.1801 H   0  0  0  0  0  0  0  0  0  0  0  0
   -3.3382   -1.4792   -0.6278 H   0  0  0  0  0  0  0  0  0  0  0  0
   -1.8394   -2.2251   -1.2252 H   0  0  0  0  0  0  0  0  0  0  0  0
  1  4  2  0
  1  8  1  0
  1  9  1  0
  2  7  1  0
  2 10  1  0
  2 11  1  0
  2 12  1  0
  3  5  2  0
  3  6  2  0
M  END
