C=O.C.O=C=O_6
     RDKit          3D

 12  9  0  0  0  0  0  0  0  0999 V2000
   -0.1882    1.4285    3.5516 C   0  0  0  0  0  0  0  0  0  0  0  0
   -3.0252   -1.6732   -1.2699 C   0  0  0  0  0  0  0  0  0  0  0  0
   -0.9148    0.4488    0.3683 C   0  0  0  0  0  0  0  0  0  0  0  0
    0.6244    1.2051    2.7144 O   0  0  0  0  0  0  0  0  0  0  0  0
   -0.0826    0.2399   -0.4127 O   0  0  0  0  0  0  0  0  0  0  0  0
   -1.7625    0.6522    1.1335 O   0  0  0  0  0  0  0  0  0  0  0  0
   -3.0699   -0.7149   -1.7843 H   0  0  0  0  0  0  0  0  0  0  0  0
    0.1294    1.7332    4.5366 H   0  0  0  0  0  0  0  0  0  0  0  0
   -1.2360    1.3214    3.3127 H   0  0  0  0  0  0  0  0  0  0  0  0
   -2.0112   -2.0655   -1.3214 H   0  0  0  0  0  0  0  0  0  0  0  0
   -3.7093   -2.3727   -1.7464 H   0  0  0  0  0  0  0  0  0  0  0  0
   -3.3106   -1.5395   -0.2280 H   0  0  0  0  0  0  0  0  0  0  0  0
  1  4  2  0
  1  8  1  0
  1  9  1  0
  2  7  1  0
  2 10  1  0
  2 11  1  0
  2 12  1  0
  3  5  2  0
  3  6  2  0
M  END
