C=O.C.O=C=O_12
     RDKit          3D

 12  9  0  0  0  0  0  0  0  0999 V2000
   -0.4868    1.6850    3.6394 C   0  0  0  0  0  0  0  0  0  0  0  0
   -2.8365   -1.6433   -1.5187 C   0  0  0  0  0  0  0  0  0  0  0  0
   -0.8334    0.0539    0.6651 C   0  0  0  0  0  0  0  0  0  0  0  0
    0.3545    1.6233    2.8031 O   0  0  0  0  0  0  0  0  0  0  0  0
    0.0215    0.0231   -0.1187 O   0  0  0  0  0  0  0  0  0  0  0  0
   -1.7012    0.0724    1.4347 O   0  0  0  0  0  0  0  0  0  0  0  0
   -3.4160   -0.9824   -0.8766 H   0  0  0  0  0  0  0  0  0  0  0  0
   -1.4368    1.2000    3.4700 H   0  0  0  0  0  0  0  0  0  0  0  0
   -0.2921    2.2226    4.5544 H   0  0  0  0  0  0  0  0  0  0  0  0
   -3.5010   -2.1370   -2.2251 H   0  0  0  0  0  0  0  0  0  0  0  0
   -2.3339   -2.3922   -0.9093 H   0  0  0  0  0  0  0  0  0  0  0  0
   -2.0950   -1.0620   -2.0638 H   0  0  0  0  0  0  0  0  0  0  0  0
  1  4  2  0
  1  8  1  0
  1  9  1  0
  2  7  1  0
  2 10  1  0
  2 11  1  0
  2 12  1  0
  3  5  2  0
  3  6  2  0
M  END
