C=O.C.O=C=O_7
     RDKit          3D

 12  9  0  0  0  0  0  0  0  0999 V2000
   -0.6174    1.8847    3.4728 C   0  0  0  0  0  0  0  0  0  0  0  0
   -2.8024   -1.5992   -1.4942 C   0  0  0  0  0  0  0  0  0  0  0  0
   -0.7181   -0.2813    0.8437 C   0  0  0  0  0  0  0  0  0  0  0  0
    0.2604    1.7431    2.6851 O   0  0  0  0  0  0  0  0  0  0  0  0
   -1.6139   -0.1949    1.5755 O   0  0  0  0  0  0  0  0  0  0  0  0
    0.1664   -0.3836    0.0997 O   0  0  0  0  0  0  0  0  0  0  0  0
   -3.0905   -0.5672   -1.3026 H   0  0  0  0  0  0  0  0  0  0  0  0
   -1.5224    1.3051    3.3653 H   0  0  0  0  0  0  0  0  0  0  0  0
   -0.4995    2.5864    4.2836 H   0  0  0  0  0  0  0  0  0  0  0  0
   -3.4674   -2.0286   -2.2411 H   0  0  0  0  0  0  0  0  0  0  0  0
   -2.8739   -2.1731   -0.5720 H   0  0  0  0  0  0  0  0  0  0  0  0
   -1.7780   -1.6279   -1.8613 H   0  0  0  0  0  0  0  0  0  0  0  0
  1  4  2  0
  1  8  1  0
  1  9  1  0
  2  7  1  0
  2 10  1  0
  2 11  1  0
  2 12  1  0
  3  5  2  0
  3  6  2  0
M  END
