C=O.C.O=C=O_16
     RDKit          3D

 12  9  0  0  0  0  0  0  0  0999 V2000
   -1.6040    0.7729    2.6941 C   0  0  0  0  0  0  0  0  0  0  0  0
   -2.8596   -1.4435   -0.0266 C   0  0  0  0  0  0  0  0  0  0  0  0
    0.6890    0.9302   -0.5541 C   0  0  0  0  0  0  0  0  0  0  0  0
   -0.9140    0.7228    1.7291 O   0  0  0  0  0  0  0  0  0  0  0  0
    1.2463    1.8387   -0.0958 O   0  0  0  0  0  0  0  0  0  0  0  0
    0.1490    0.0243   -1.0376 O   0  0  0  0  0  0  0  0  0  0  0  0
   -3.6056   -0.6519    0.0188 H   0  0  0  0  0  0  0  0  0  0  0  0
   -2.5030    0.1772    2.7370 H   0  0  0  0  0  0  0  0  0  0  0  0
   -1.3234    1.4141    3.5154 H   0  0  0  0  0  0  0  0  0  0  0  0
   -1.8643   -1.0037   -0.0200 H   0  0  0  0  0  0  0  0  0  0  0  0
   -2.9950   -2.0182   -0.9409 H   0  0  0  0  0  0  0  0  0  0  0  0
   -2.9721   -2.0994    0.8349 H   0  0  0  0  0  0  0  0  0  0  0  0
  1  4  2  0
  1  8  1  0
  1  9  1  0
  2  7  1  0
  2 10  1  0
  2 11  1  0
  2 12  1  0
  3  5  2  0
  3  6  2  0
M  END
