C=O.C.O=C=O
     RDKit          3D

 12  9  0  0  0  0  0  0  0  0999 V2000
   -1.4944    0.5930    2.6888 C   0  0  0  0  0  0  0  0  0  0  0  0
   -2.7580   -1.2028   -0.1621 C   0  0  0  0  0  0  0  0  0  0  0  0
    0.3829    0.8079   -0.3699 C   0  0  0  0  0  0  0  0  0  0  0  0
   -0.9348   -0.4750    2.8710 O   0  0  0  0  0  0  0  0  0  0  0  0
   -0.2941    1.8046   -0.6517 O   0  0  0  0  0  0  0  0  0  0  0  0
    1.0592   -0.1892   -0.0874 O   0  0  0  0  0  0  0  0  0  0  0  0
   -2.7255   -0.1016   -0.2925 H   0  0  0  0  0  0  0  0  0  0  0  0
   -0.9120    1.5048    2.6164 H   0  0  0  0  0  0  0  0  0  0  0  0
   -2.5741    0.6305    2.5964 H   0  0  0  0  0  0  0  0  0  0  0  0
   -3.1813   -1.6711   -1.0743 H   0  0  0  0  0  0  0  0  0  0  0  0
   -3.3938   -1.4523    0.7120 H   0  0  0  0  0  0  0  0  0  0  0  0
   -1.7307   -1.5854    0.0078 H   0  0  0  0  0  0  0  0  0  0  0  0
  1  4  2  0
  1  8  1  0
  1  9  1  0
  2  7  1  0
  2 10  1  0
  2 11  1  0
  2 12  1  0
  3  5  2  0
  3  6  2  0
M  END
