C=O.C.O=C=O_4
     RDKit          3D

 12  9  0  0  0  0  0  0  0  0999 V2000
   -1.4101    0.8415    2.6645 C   0  0  0  0  0  0  0  0  0  0  0  0
   -2.7330   -1.2561   -0.1653 C   0  0  0  0  0  0  0  0  0  0  0  0
    0.2240    0.5558   -0.3074 C   0  0  0  0  0  0  0  0  0  0  0  0
   -0.7196   -0.0802    2.3734 O   0  0  0  0  0  0  0  0  0  0  0  0
   -0.3882    1.5095   -0.0597 O   0  0  0  0  0  0  0  0  0  0  0  0
    0.8411   -0.3895   -0.5751 O   0  0  0  0  0  0  0  0  0  0  0  0
   -3.5135   -1.8324   -0.6585 H   0  0  0  0  0  0  0  0  0  0  0  0
   -1.9163    0.8497    3.6172 H   0  0  0  0  0  0  0  0  0  0  0  0
   -1.5241    1.6576    1.9664 H   0  0  0  0  0  0  0  0  0  0  0  0
   -2.7017   -0.2523   -0.5855 H   0  0  0  0  0  0  0  0  0  0  0  0
   -1.7716   -1.7434   -0.3162 H   0  0  0  0  0  0  0  0  0  0  0  0
   -2.9436   -1.1966    0.9007 H   0  0  0  0  0  0  0  0  0  0  0  0
  1  4  2  0
  1  8  1  0
  1  9  1  0
  2  7  1  0
  2 10  1  0
  2 11  1  0
  2 12  1  0
  3  5  2  0
  3  6  2  0
M  END
