OC(=O)[C@@H](O)C_1
     RDKit          3D

 12 11  0  0  0  0  0  0  0  0999 V2000
    0.5041   -0.3447    0.3600 C   0  0  1  0  0  0  0  0  0  0  0  0
    0.8862    0.6451   -0.7256 C   0  0  0  0  0  0  0  0  0  0  0  0
    0.3876    0.3189    1.7161 C   0  0  0  0  0  0  0  0  0  0  0  0
   -0.7230   -0.9898    0.0551 O   0  0  0  0  0  0  0  0  0  0  0  0
    1.0910    1.4491    1.9369 O   0  0  0  0  0  0  0  0  0  0  0  0
   -0.3165   -0.2085    2.5460 O   0  0  0  0  0  0  0  0  0  0  0  0
    0.9077    1.7298    2.8539 H   0  0  0  0  0  0  0  0  0  0  0  0
   -1.1456   -1.2792    0.8948 H   0  0  0  0  0  0  0  0  0  0  0  0
    1.2644   -1.1407    0.4324 H   0  0  0  0  0  0  0  0  0  0  0  0
    1.8293    1.1430   -0.4933 H   0  0  0  0  0  0  0  0  0  0  0  0
    0.1137    1.4099   -0.8092 H   0  0  0  0  0  0  0  0  0  0  0  0
    0.9724    0.1495   -1.6935 H   0  0  0  0  0  0  0  0  0  0  0  0
  1  2  1  0
  1  3  1  0
  1  4  1  0
  1  9  1  1
  2 10  1  0
  2 11  1  0
  2 12  1  0
  3  5  1  0
  3  6  2  0
  4  8  1  0
  5  7  1  0
M  END
