OC(=O)[C@@H](O)C_0
     RDKit          3D

 12 11  0  0  0  0  0  0  0  0999 V2000
    0.6889   -0.3211    0.4195 C   0  0  1  0  0  0  0  0  0  0  0  0
    0.7049    0.6059   -0.7820 C   0  0  0  0  0  0  0  0  0  0  0  0
    0.3695    0.4426    1.6838 C   0  0  0  0  0  0  0  0  0  0  0  0
   -0.2627   -1.3607    0.2669 O   0  0  0  0  0  0  0  0  0  0  0  0
    1.4008    0.8602    2.4461 O   0  0  0  0  0  0  0  0  0  0  0  0
   -0.7944    0.6587    1.9300 O   0  0  0  0  0  0  0  0  0  0  0  0
    1.0271    1.3297    3.2163 H   0  0  0  0  0  0  0  0  0  0  0  0
   -1.1263   -1.0412    0.6123 H   0  0  0  0  0  0  0  0  0  0  0  0
    1.6664   -0.8167    0.5407 H   0  0  0  0  0  0  0  0  0  0  0  0
    1.4575    1.3883   -0.6708 H   0  0  0  0  0  0  0  0  0  0  0  0
   -0.2679    1.0867   -0.8904 H   0  0  0  0  0  0  0  0  0  0  0  0
    0.9076    0.0503   -1.6986 H   0  0  0  0  0  0  0  0  0  0  0  0
  1  2  1  0
  1  3  1  0
  1  4  1  0
  1  9  1  1
  2 10  1  0
  2 11  1  0
  2 12  1  0
  3  5  1  0
  3  6  2  0
  4  8  1  0
  5  7  1  0
M  END
