OC(=O)[C@@H](O)C_3
     RDKit          3D

 12 11  0  0  0  0  0  0  0  0999 V2000
    0.8734   -0.2479    0.3606 C   0  0  1  0  0  0  0  0  0  0  0  0
    0.4892    0.6268   -0.8186 C   0  0  0  0  0  0  0  0  0  0  0  0
    0.8176    0.5379    1.6512 C   0  0  0  0  0  0  0  0  0  0  0  0
    0.0457   -1.3962    0.4589 O   0  0  0  0  0  0  0  0  0  0  0  0
   -0.3081    0.4045    2.3803 O   0  0  0  0  0  0  0  0  0  0  0  0
    1.7397    1.2612    1.9532 O   0  0  0  0  0  0  0  0  0  0  0  0
   -0.2082    0.9645    3.1734 H   0  0  0  0  0  0  0  0  0  0  0  0
   -0.7286   -1.1837    1.0270 H   0  0  0  0  0  0  0  0  0  0  0  0
    1.8999   -0.6309    0.2335 H   0  0  0  0  0  0  0  0  0  0  0  0
    1.1498    1.4920   -0.8994 H   0  0  0  0  0  0  0  0  0  0  0  0
   -0.5307    0.9918   -0.6951 H   0  0  0  0  0  0  0  0  0  0  0  0
    0.5317    0.0626   -1.7513 H   0  0  0  0  0  0  0  0  0  0  0  0
  1  2  1  0
  1  3  1  0
  1  4  1  0
  1  9  1  6
  2 10  1  0
  2 11  1  0
  2 12  1  0
  3  5  1  0
  3  6  2  0
  4  8  1  0
  5  7  1  0
M  END
