OC(=O)[C@@H](O)C_2
     RDKit          3D

 12 11  0  0  0  0  0  0  0  0999 V2000
    0.7617   -0.1684    0.3380 C   0  0  1  0  0  0  0  0  0  0  0  0
    0.4953    0.6514   -0.9119 C   0  0  0  0  0  0  0  0  0  0  0  0
    0.6124    0.6716    1.5893 C   0  0  0  0  0  0  0  0  0  0  0  0
   -0.1046   -1.2917    0.4043 O   0  0  0  0  0  0  0  0  0  0  0  0
    0.1503    0.0320    2.6822 O   0  0  0  0  0  0  0  0  0  0  0  0
    0.9256    1.8408    1.5750 O   0  0  0  0  0  0  0  0  0  0  0  0
    0.1167    0.6853    3.4067 H   0  0  0  0  0  0  0  0  0  0  0  0
   -0.2256   -1.5524    1.3451 H   0  0  0  0  0  0  0  0  0  0  0  0
    1.7900   -0.5671    0.3148 H   0  0  0  0  0  0  0  0  0  0  0  0
    1.1562    1.5189   -0.9608 H   0  0  0  0  0  0  0  0  0  0  0  0
   -0.5330    1.0135   -0.8974 H   0  0  0  0  0  0  0  0  0  0  0  0
    0.6263    0.0486   -1.8116 H   0  0  0  0  0  0  0  0  0  0  0  0
  1  2  1  0
  1  3  1  0
  1  4  1  0
  1  9  1  6
  2 10  1  0
  2 11  1  0
  2 12  1  0
  3  5  1  0
  3  6  2  0
  4  8  1  0
  5  7  1  0
M  END
