OO/C=C\C=O.[H][H]_0
     RDKit          3D

 12 10  0  0  0  0  0  0  0  0999 V2000
   -0.0136   -0.1233    1.4451 C   0  0  0  0  0  0  0  0  0  0  0  0
   -1.0199    0.7443    1.6715 C   0  0  0  0  0  0  0  0  0  0  0  0
   -1.0694    2.0488    1.1097 C   0  0  0  0  0  0  0  0  0  0  0  0
    1.0574    0.0704    0.6491 O   0  0  0  0  0  0  0  0  0  0  0  0
    0.9251    1.1746   -0.2968 O   0  0  0  0  0  0  0  0  0  0  0  0
   -1.9261    2.8732    1.3172 O   0  0  0  0  0  0  0  0  0  0  0  0
    1.1707    0.7762   -1.1460 H   0  0  0  0  0  0  0  0  0  0  0  0
    1.6721    2.1011    2.7730 H   0  0  0  0  0  0  0  0  0  0  0  0
   -0.0082   -1.0799    1.9530 H   0  0  0  0  0  0  0  0  0  0  0  0
   -0.2818    2.3620    0.4366 H   0  0  0  0  0  0  0  0  0  0  0  0
    2.0984    2.0044    2.1307 H   0  0  0  0  0  0  0  0  0  0  0  0
   -1.8195    0.4690    2.3377 H   0  0  0  0  0  0  0  0  0  0  0  0
  1  2  2  0
  1  4  1  0
  1  9  1  0
  2  3  1  0
  2 12  1  0
  3  6  2  0
  3 10  1  0
  4  5  1  0
  5  7  1  0
  8 11  1  0
M  END
