OO/C=C\C=O.[H][H]_7
     RDKit          3D

 12 10  0  0  0  0  0  0  0  0999 V2000
    0.1659    0.0765    0.6498 C   0  0  0  0  0  0  0  0  0  0  0  0
   -0.3381    1.2773    0.9992 C   0  0  0  0  0  0  0  0  0  0  0  0
   -0.2559    1.7717    2.3322 C   0  0  0  0  0  0  0  0  0  0  0  0
    0.7852   -0.7606    1.5027 O   0  0  0  0  0  0  0  0  0  0  0  0
    1.2202   -1.9689    0.8054 O   0  0  0  0  0  0  0  0  0  0  0  0
   -0.6740    2.8401    2.7070 O   0  0  0  0  0  0  0  0  0  0  0  0
    2.1760   -2.0057    0.9728 H   0  0  0  0  0  0  0  0  0  0  0  0
   -0.9173    4.7645    1.0991 H   0  0  0  0  0  0  0  0  0  0  0  0
    0.0825   -0.2850   -0.3662 H   0  0  0  0  0  0  0  0  0  0  0  0
    0.2155    1.1516    3.0872 H   0  0  0  0  0  0  0  0  0  0  0  0
   -0.8515    4.6678    0.3310 H   0  0  0  0  0  0  0  0  0  0  0  0
   -0.8232    1.8915    0.2605 H   0  0  0  0  0  0  0  0  0  0  0  0
  1  2  2  0
  1  4  1  0
  1  9  1  0
  2  3  1  0
  2 12  1  0
  3  6  2  0
  3 10  1  0
  4  5  1  0
  5  7  1  0
  8 11  1  0
M  END
