OO/C=C\C=O.[H][H]_5
     RDKit          3D

 12 10  0  0  0  0  0  0  0  0999 V2000
    0.4061    0.1276    1.3474 C   0  0  0  0  0  0  0  0  0  0  0  0
   -0.3956    1.0703    1.8826 C   0  0  0  0  0  0  0  0  0  0  0  0
   -1.1704    1.9503    1.0745 C   0  0  0  0  0  0  0  0  0  0  0  0
    0.5534   -0.0777    0.0254 O   0  0  0  0  0  0  0  0  0  0  0  0
    1.4817   -1.1796   -0.2191 O   0  0  0  0  0  0  0  0  0  0  0  0
   -1.9129    2.8061    1.4904 O   0  0  0  0  0  0  0  0  0  0  0  0
    0.9688   -1.8039   -0.7577 H   0  0  0  0  0  0  0  0  0  0  0  0
    0.3986    4.2368    2.2702 H   0  0  0  0  0  0  0  0  0  0  0  0
    0.9956   -0.5225    1.9797 H   0  0  0  0  0  0  0  0  0  0  0  0
   -1.0990    1.8622   -0.0043 H   0  0  0  0  0  0  0  0  0  0  0  0
    1.0193    3.7746    2.3400 H   0  0  0  0  0  0  0  0  0  0  0  0
   -0.4605    1.1765    2.9517 H   0  0  0  0  0  0  0  0  0  0  0  0
  1  2  2  0
  1  4  1  0
  1  9  1  0
  2  3  1  0
  2 12  1  0
  3  6  2  0
  3 10  1  0
  4  5  1  0
  5  7  1  0
  8 11  1  0
M  END
