OO/C=C\C=O.[H][H]_3
     RDKit          3D

 12 10  0  0  0  0  0  0  0  0999 V2000
    0.1338    0.0595    1.3246 C   0  0  0  0  0  0  0  0  0  0  0  0
   -0.6133    0.9841    1.9609 C   0  0  0  0  0  0  0  0  0  0  0  0
   -1.2966    2.0169    1.2579 C   0  0  0  0  0  0  0  0  0  0  0  0
    0.3081    0.0160   -0.0092 O   0  0  0  0  0  0  0  0  0  0  0  0
    1.1818   -1.0973   -0.3731 O   0  0  0  0  0  0  0  0  0  0  0  0
   -1.9629    2.8843    1.7681 O   0  0  0  0  0  0  0  0  0  0  0  0
    1.9075   -0.6764   -0.8619 H   0  0  0  0  0  0  0  0  0  0  0  0
    1.4455    3.1715    2.0811 H   0  0  0  0  0  0  0  0  0  0  0  0
    0.6368   -0.7224    1.8775 H   0  0  0  0  0  0  0  0  0  0  0  0
   -1.2236    2.0440    0.1759 H   0  0  0  0  0  0  0  0  0  0  0  0
    0.9743    3.7858    2.1462 H   0  0  0  0  0  0  0  0  0  0  0  0
   -0.7061    0.9550    3.0328 H   0  0  0  0  0  0  0  0  0  0  0  0
  1  2  2  0
  1  4  1  0
  1  9  1  0
  2  3  1  0
  2 12  1  0
  3  6  2  0
  3 10  1  0
  4  5  1  0
  5  7  1  0
  8 11  1  0
M  END
