OO/C=C\C=O.[H][H]_1
     RDKit          3D

 12 10  0  0  0  0  0  0  0  0999 V2000
   -0.2155    0.4288    0.7094 C   0  0  0  0  0  0  0  0  0  0  0  0
   -1.2258    1.0377    1.3624 C   0  0  0  0  0  0  0  0  0  0  0  0
   -1.0185    1.7512    2.5774 C   0  0  0  0  0  0  0  0  0  0  0  0
    1.0638    0.4298    1.1277 O   0  0  0  0  0  0  0  0  0  0  0  0
    1.9053   -0.3191    0.1969 O   0  0  0  0  0  0  0  0  0  0  0  0
   -1.8800    2.3045    3.2163 O   0  0  0  0  0  0  0  0  0  0  0  0
    2.3181   -1.0018    0.7504 H   0  0  0  0  0  0  0  0  0  0  0  0
    1.5581    2.8279    0.3172 H   0  0  0  0  0  0  0  0  0  0  0  0
   -0.3930   -0.0964   -0.2193 H   0  0  0  0  0  0  0  0  0  0  0  0
   -0.0119    1.8148    2.9766 H   0  0  0  0  0  0  0  0  0  0  0  0
    0.9096    3.2477    0.4008 H   0  0  0  0  0  0  0  0  0  0  0  0
   -2.2250    0.9959    0.9648 H   0  0  0  0  0  0  0  0  0  0  0  0
  1  2  2  0
  1  4  1  0
  1  9  1  0
  2  3  1  0
  2 12  1  0
  3  6  2  0
  3 10  1  0
  4  5  1  0
  5  7  1  0
  8 11  1  0
M  END
