OO/C=C\C=O.[H][H]_2
     RDKit          3D

 12 10  0  0  0  0  0  0  0  0999 V2000
   -0.2547    0.2881    0.8082 C   0  0  0  0  0  0  0  0  0  0  0  0
   -1.2311    1.0406    1.3544 C   0  0  0  0  0  0  0  0  0  0  0  0
   -1.0210    1.8101    2.5341 C   0  0  0  0  0  0  0  0  0  0  0  0
    0.9913    0.1885    1.3072 O   0  0  0  0  0  0  0  0  0  0  0  0
    1.8068   -0.6893    0.4707 O   0  0  0  0  0  0  0  0  0  0  0  0
   -1.8457    2.5156    3.0621 O   0  0  0  0  0  0  0  0  0  0  0  0
    2.5632   -0.1359    0.2167 H   0  0  0  0  0  0  0  0  0  0  0  0
    0.9535    2.9893    0.1385 H   0  0  0  0  0  0  0  0  0  0  0  0
   -0.4388   -0.2967   -0.0829 H   0  0  0  0  0  0  0  0  0  0  0  0
   -0.0482    1.7716    3.0124 H   0  0  0  0  0  0  0  0  0  0  0  0
    1.5151    2.8679    0.6616 H   0  0  0  0  0  0  0  0  0  0  0  0
   -2.2051    1.0711    0.8976 H   0  0  0  0  0  0  0  0  0  0  0  0
  1  2  2  0
  1  4  1  0
  1  9  1  0
  2  3  1  0
  2 12  1  0
  3  6  2  0
  3 10  1  0
  4  5  1  0
  5  7  1  0
  8 11  1  0
M  END
