OO/C=C\C=O.[H][H]_9
     RDKit          3D

 12 10  0  0  0  0  0  0  0  0999 V2000
   -0.1348    1.3124    1.1696 C   0  0  0  0  0  0  0  0  0  0  0  0
   -1.2948    1.5452    1.8163 C   0  0  0  0  0  0  0  0  0  0  0  0
   -1.6847    0.7945    2.9620 C   0  0  0  0  0  0  0  0  0  0  0  0
    0.7554    0.3695    1.5301 O   0  0  0  0  0  0  0  0  0  0  0  0
    1.9089    0.3870    0.6333 O   0  0  0  0  0  0  0  0  0  0  0  0
   -2.6998    0.9625    3.5929 O   0  0  0  0  0  0  0  0  0  0  0  0
    2.6653    0.5252    1.2263 H   0  0  0  0  0  0  0  0  0  0  0  0
    2.0872    1.2706   -1.8182 H   0  0  0  0  0  0  0  0  0  0  0  0
    0.1366    1.8880    0.2951 H   0  0  0  0  0  0  0  0  0  0  0  0
   -1.0300    0.0033    3.3113 H   0  0  0  0  0  0  0  0  0  0  0  0
    2.0344    2.0455   -1.8057 H   0  0  0  0  0  0  0  0  0  0  0  0
   -1.9588    2.3172    1.4678 H   0  0  0  0  0  0  0  0  0  0  0  0
  1  2  2  0
  1  4  1  0
  1  9  1  0
  2  3  1  0
  2 12  1  0
  3  6  2  0
  3 10  1  0
  4  5  1  0
  5  7  1  0
  8 11  1  0
M  END
