OO/C=C\C=O.[H][H]_4
     RDKit          3D

 12 10  0  0  0  0  0  0  0  0999 V2000
    0.2924    0.1562    1.3243 C   0  0  0  0  0  0  0  0  0  0  0  0
   -0.5727    1.0094    1.9088 C   0  0  0  0  0  0  0  0  0  0  0  0
   -1.2604    2.0128    1.1683 C   0  0  0  0  0  0  0  0  0  0  0  0
    0.5881    0.1609    0.0113 O   0  0  0  0  0  0  0  0  0  0  0  0
    1.5479   -0.8965   -0.2988 O   0  0  0  0  0  0  0  0  0  0  0  0
   -2.0517    2.7993    1.6286 O   0  0  0  0  0  0  0  0  0  0  0  0
    1.1039   -1.4238   -0.9826 H   0  0  0  0  0  0  0  0  0  0  0  0
    1.3358    3.2888    2.2995 H   0  0  0  0  0  0  0  0  0  0  0  0
    0.8138   -0.5904    1.9078 H   0  0  0  0  0  0  0  0  0  0  0  0
   -1.0688    2.0948    0.1037 H   0  0  0  0  0  0  0  0  0  0  0  0
    0.8140    3.8629    2.3427 H   0  0  0  0  0  0  0  0  0  0  0  0
   -0.7570    0.9466    2.9672 H   0  0  0  0  0  0  0  0  0  0  0  0
  1  2  2  0
  1  4  1  0
  1  9  1  0
  2  3  1  0
  2 12  1  0
  3  6  2  0
  3 10  1  0
  4  5  1  0
  5  7  1  0
  8 11  1  0
M  END
