OO/C=C\C=O.[H][H]_11
     RDKit          3D

 12 10  0  0  0  0  0  0  0  0999 V2000
   -0.4341   -0.1725    0.8557 C   0  0  0  0  0  0  0  0  0  0  0  0
   -1.3197    0.6069    1.5088 C   0  0  0  0  0  0  0  0  0  0  0  0
   -0.9935    1.9256    1.9358 C   0  0  0  0  0  0  0  0  0  0  0  0
    0.8205    0.2045    0.5467 O   0  0  0  0  0  0  0  0  0  0  0  0
    1.5205   -0.8741   -0.1478 O   0  0  0  0  0  0  0  0  0  0  0  0
   -1.7332    2.6683    2.5339 O   0  0  0  0  0  0  0  0  0  0  0  0
    2.3104   -1.0295    0.3953 H   0  0  0  0  0  0  0  0  0  0  0  0
    2.0660    4.1501    1.6102 H   0  0  0  0  0  0  0  0  0  0  0  0
   -0.7062   -1.1675    0.5303 H   0  0  0  0  0  0  0  0  0  0  0  0
   -0.0046    2.3120    1.7137 H   0  0  0  0  0  0  0  0  0  0  0  0
    1.5671    4.5604    1.1786 H   0  0  0  0  0  0  0  0  0  0  0  0
   -2.3081    0.2369    1.7194 H   0  0  0  0  0  0  0  0  0  0  0  0
  1  2  2  0
  1  4  1  0
  1  9  1  0
  2  3  1  0
  2 12  1  0
  3  6  2  0
  3 10  1  0
  4  5  1  0
  5  7  1  0
  8 11  1  0
M  END
