OO/C=C\C=O.[H][H]_10
     RDKit          3D

 12 10  0  0  0  0  0  0  0  0999 V2000
    0.4363    0.8245    1.1561 C   0  0  0  0  0  0  0  0  0  0  0  0
   -0.5582    1.5760    1.6701 C   0  0  0  0  0  0  0  0  0  0  0  0
   -1.4030    1.0997    2.7129 C   0  0  0  0  0  0  0  0  0  0  0  0
    0.7278   -0.4247    1.5634 O   0  0  0  0  0  0  0  0  0  0  0  0
    1.8499   -0.9619    0.7966 O   0  0  0  0  0  0  0  0  0  0  0  0
   -2.3170    1.7153    3.2052 O   0  0  0  0  0  0  0  0  0  0  0  0
    1.4999   -1.7811    0.4102 H   0  0  0  0  0  0  0  0  0  0  0  0
    1.0169    3.8692   -0.7433 H   0  0  0  0  0  0  0  0  0  0  0  0
    1.0739    1.2099    0.3720 H   0  0  0  0  0  0  0  0  0  0  0  0
   -1.2262    0.1063    3.1110 H   0  0  0  0  0  0  0  0  0  0  0  0
    0.4158    3.6185   -1.1671 H   0  0  0  0  0  0  0  0  0  0  0  0
   -0.7309    2.5693    1.2937 H   0  0  0  0  0  0  0  0  0  0  0  0
  1  2  2  0
  1  4  1  0
  1  9  1  0
  2  3  1  0
  2 12  1  0
  3  6  2  0
  3 10  1  0
  4  5  1  0
  5  7  1  0
  8 11  1  0
M  END
