OO/C=C\C=O.[H][H]_15
     RDKit          3D

 12 10  0  0  0  0  0  0  0  0999 V2000
   -0.1529    1.2640    1.1476 C   0  0  0  0  0  0  0  0  0  0  0  0
   -1.3663    1.4049    1.7178 C   0  0  0  0  0  0  0  0  0  0  0  0
   -1.6681    0.8703    3.0053 C   0  0  0  0  0  0  0  0  0  0  0  0
    0.9039    0.6536    1.7087 O   0  0  0  0  0  0  0  0  0  0  0  0
    2.0274    0.6089    0.7768 O   0  0  0  0  0  0  0  0  0  0  0  0
   -0.9335    0.2233    3.7080 O   0  0  0  0  0  0  0  0  0  0  0  0
    2.3231   -0.3147    0.8197 H   0  0  0  0  0  0  0  0  0  0  0  0
    2.4831    2.0258   -1.3692 H   0  0  0  0  0  0  0  0  0  0  0  0
    0.0448    1.6675    0.1627 H   0  0  0  0  0  0  0  0  0  0  0  0
   -2.6554    1.0391    3.4214 H   0  0  0  0  0  0  0  0  0  0  0  0
    1.9139    2.0429   -1.8977 H   0  0  0  0  0  0  0  0  0  0  0  0
   -2.1349    1.9352    1.1798 H   0  0  0  0  0  0  0  0  0  0  0  0
  1  2  2  0
  1  4  1  0
  1  9  1  0
  2  3  1  0
  2 12  1  0
  3  6  2  0
  3 10  1  0
  4  5  1  0
  5  7  1  0
  8 11  1  0
M  END
