OO/C=C\C=O.[H][H]
     RDKit          3D

 12 10  0  0  0  0  0  0  0  0999 V2000
   -0.2664    0.2105    0.7840 C   0  0  0  0  0  0  0  0  0  0  0  0
   -1.2066    0.9850    1.3252 C   0  0  0  0  0  0  0  0  0  0  0  0
   -0.9584    1.8102    2.5146 C   0  0  0  0  0  0  0  0  0  0  0  0
    1.0165    0.1408    1.3273 O   0  0  0  0  0  0  0  0  0  0  0  0
    1.9593   -0.6297    0.7660 O   0  0  0  0  0  0  0  0  0  0  0  0
   -1.8813    2.5248    2.9851 O   0  0  0  0  0  0  0  0  0  0  0  0
    2.2001   -0.1722   -0.0804 H   0  0  0  0  0  0  0  0  0  0  0  0
    1.1024    3.0465    0.2017 H   0  0  0  0  0  0  0  0  0  0  0  0
   -0.5048   -0.3753   -0.0955 H   0  0  0  0  0  0  0  0  0  0  0  0
    0.0107    1.8161    2.9969 H   0  0  0  0  0  0  0  0  0  0  0  0
    1.5033    3.0553    0.7851 H   0  0  0  0  0  0  0  0  0  0  0  0
   -2.1896    1.0089    0.8707 H   0  0  0  0  0  0  0  0  0  0  0  0
  1  2  2  0
  1  4  1  0
  1  9  1  0
  2  3  1  0
  2 12  1  0
  3  6  2  0
  3 10  1  0
  4  5  1  0
  5  7  1  0
  8 11  1  0
M  END
