OC1OCCO1_1
     RDKit          3D

 12 12  0  0  0  0  0  0  0  0999 V2000
    0.4460   -0.0177   -1.2191 C   0  0  0  0  0  0  0  0  0  0  0  0
    0.4528    1.2180   -0.2960 C   0  0  0  0  0  0  0  0  0  0  0  0
   -0.5484   -0.5337    0.7358 C   0  0  0  0  0  0  0  0  0  0  0  0
   -0.4596   -0.9308   -0.6355 O   0  0  0  0  0  0  0  0  0  0  0  0
    0.3368   -1.2352    1.5782 O   0  0  0  0  0  0  0  0  0  0  0  0
   -0.3564    0.8818    0.8173 O   0  0  0  0  0  0  0  0  0  0  0  0
    0.3714   -0.7977    2.4539 H   0  0  0  0  0  0  0  0  0  0  0  0
    0.1039    0.2053   -2.2387 H   0  0  0  0  0  0  0  0  0  0  0  0
    1.4247   -0.5135   -1.2695 H   0  0  0  0  0  0  0  0  0  0  0  0
   -1.5814   -0.7467    1.0641 H   0  0  0  0  0  0  0  0  0  0  0  0
    1.4551    1.4717    0.0733 H   0  0  0  0  0  0  0  0  0  0  0  0
    0.0136    2.1044   -0.7723 H   0  0  0  0  0  0  0  0  0  0  0  0
  1  2  1  0
  1  4  1  0
  1  8  1  0
  1  9  1  0
  2  6  1  0
  2 11  1  0
  2 12  1  0
  3  4  1  0
  3  5  1  0
  3  6  1  0
  3 10  1  0
  5  7  1  0
M  END
