OC1OCCO1_2
     RDKit          3D

 12 12  0  0  0  0  0  0  0  0999 V2000
    0.4642   -0.0336   -1.1828 C   0  0  0  0  0  0  0  0  0  0  0  0
    0.5061    1.2409   -0.3265 C   0  0  0  0  0  0  0  0  0  0  0  0
   -0.5182   -0.4695    0.8147 C   0  0  0  0  0  0  0  0  0  0  0  0
    0.1674   -1.0851   -0.2830 O   0  0  0  0  0  0  0  0  0  0  0  0
   -0.3919   -1.1743    2.0238 O   0  0  0  0  0  0  0  0  0  0  0  0
   -0.1154    0.9077    0.9084 O   0  0  0  0  0  0  0  0  0  0  0  0
    0.5531   -1.1893    2.2679 H   0  0  0  0  0  0  0  0  0  0  0  0
   -0.3301   -0.0068   -1.9399 H   0  0  0  0  0  0  0  0  0  0  0  0
    1.4191   -0.2554   -1.6776 H   0  0  0  0  0  0  0  0  0  0  0  0
   -1.5921   -0.4708    0.5628 H   0  0  0  0  0  0  0  0  0  0  0  0
    1.5319    1.5588   -0.1011 H   0  0  0  0  0  0  0  0  0  0  0  0
   -0.0358    2.0833   -0.7754 H   0  0  0  0  0  0  0  0  0  0  0  0
  1  2  1  0
  1  4  1  0
  1  8  1  0
  1  9  1  0
  2  6  1  0
  2 11  1  0
  2 12  1  0
  3  4  1  0
  3  5  1  0
  3  6  1  0
  3 10  1  0
  5  7  1  0
M  END
