OC1OCCO1
     RDKit          3D

 12 12  0  0  0  0  0  0  0  0999 V2000
    0.4284    0.0057   -1.2340 C   0  0  0  0  0  0  0  0  0  0  0  0
    0.5300    1.1994   -0.3293 C   0  0  0  0  0  0  0  0  0  0  0  0
   -0.3441   -0.5408    0.7721 C   0  0  0  0  0  0  0  0  0  0  0  0
    0.1885   -1.0870   -0.4086 O   0  0  0  0  0  0  0  0  0  0  0  0
    0.1486   -1.2595    1.8680 O   0  0  0  0  0  0  0  0  0  0  0  0
    0.0060    0.8179    0.9044 O   0  0  0  0  0  0  0  0  0  0  0  0
   -0.3464   -0.9311    2.6633 H   0  0  0  0  0  0  0  0  0  0  0  0
   -0.4163    0.1227   -1.9482 H   0  0  0  0  0  0  0  0  0  0  0  0
    1.3719   -0.1474   -1.8002 H   0  0  0  0  0  0  0  0  0  0  0  0
   -1.4547   -0.6302    0.7371 H   0  0  0  0  0  0  0  0  0  0  0  0
    1.5923    1.4982   -0.1966 H   0  0  0  0  0  0  0  0  0  0  0  0
   -0.0458    2.0579   -0.7367 H   0  0  0  0  0  0  0  0  0  0  0  0
  1  2  1  0
  1  4  1  0
  1  8  1  0
  1  9  1  0
  2  6  1  0
  2 11  1  0
  2 12  1  0
  3  4  1  0
  3  5  1  0
  3  6  1  0
  3 10  1  0
  5  7  1  0
M  END
