COCOC=O_1
     RDKit          3D

 12 11  0  0  0  0  0  0  0  0999 V2000
   -0.3328    0.1171    0.4949 C   0  0  0  0  0  0  0  0  0  0  0  0
    1.4950   -1.1160   -0.1798 C   0  0  0  0  0  0  0  0  0  0  0  0
   -0.0511    1.6227    2.1299 C   0  0  0  0  0  0  0  0  0  0  0  0
    0.1019   -1.0502   -0.1596 O   0  0  0  0  0  0  0  0  0  0  0  0
    0.4090    0.4562    1.6326 O   0  0  0  0  0  0  0  0  0  0  0  0
   -0.9356    2.3108    1.6887 O   0  0  0  0  0  0  0  0  0  0  0  0
    1.7939   -2.0573   -0.6475 H   0  0  0  0  0  0  0  0  0  0  0  0
   -1.3815   -0.0247    0.7936 H   0  0  0  0  0  0  0  0  0  0  0  0
   -0.2795    0.9573   -0.2122 H   0  0  0  0  0  0  0  0  0  0  0  0
    0.4418    1.9736    3.0259 H   0  0  0  0  0  0  0  0  0  0  0  0
    1.8909   -0.2719   -0.7500 H   0  0  0  0  0  0  0  0  0  0  0  0
    1.8584   -1.0768    0.8512 H   0  0  0  0  0  0  0  0  0  0  0  0
  1  4  1  0
  1  5  1  0
  1  8  1  0
  1  9  1  0
  2  4  1  0
  2  7  1  0
  2 11  1  0
  2 12  1  0
  3  5  1  0
  3  6  2  0
  3 10  1  0
M  END
