COCOC=O_3
     RDKit          3D

 12 11  0  0  0  0  0  0  0  0999 V2000
   -0.6022    0.0938    0.2519 C   0  0  0  0  0  0  0  0  0  0  0  0
    1.5310   -0.7834    0.1712 C   0  0  0  0  0  0  0  0  0  0  0  0
    0.1455    1.4300    1.9185 C   0  0  0  0  0  0  0  0  0  0  0  0
    0.2215   -0.9828    0.6175 O   0  0  0  0  0  0  0  0  0  0  0  0
   -0.0748    1.3498    0.5887 O   0  0  0  0  0  0  0  0  0  0  0  0
    0.6356    2.3395    2.5386 O   0  0  0  0  0  0  0  0  0  0  0  0
    1.5477   -0.7885   -0.9213 H   0  0  0  0  0  0  0  0  0  0  0  0
   -1.5801   -0.0297    0.7353 H   0  0  0  0  0  0  0  0  0  0  0  0
   -0.7483    0.0711   -0.8356 H   0  0  0  0  0  0  0  0  0  0  0  0
   -0.1186    0.5583    2.5025 H   0  0  0  0  0  0  0  0  0  0  0  0
    1.8977    0.1769    0.5457 H   0  0  0  0  0  0  0  0  0  0  0  0
    2.1552   -1.5944    0.5547 H   0  0  0  0  0  0  0  0  0  0  0  0
  1  4  1  0
  1  5  1  0
  1  8  1  0
  1  9  1  0
  2  4  1  0
  2  7  1  0
  2 11  1  0
  2 12  1  0
  3  5  1  0
  3  6  2  0
  3 10  1  0
M  END
