COCOC=O
     RDKit          3D

 12 11  0  0  0  0  0  0  0  0999 V2000
   -0.1988    0.2651    0.3628 C   0  0  0  0  0  0  0  0  0  0  0  0
    1.4983   -1.2053   -0.1430 C   0  0  0  0  0  0  0  0  0  0  0  0
   -0.2221    1.8894    2.2098 C   0  0  0  0  0  0  0  0  0  0  0  0
    1.2006    0.0775    0.3601 O   0  0  0  0  0  0  0  0  0  0  0  0
   -0.5004    1.5522    0.8863 O   0  0  0  0  0  0  0  0  0  0  0  0
   -0.5023    3.0400    2.6338 O   0  0  0  0  0  0  0  0  0  0  0  0
    2.5999   -1.3359   -0.1482 H   0  0  0  0  0  0  0  0  0  0  0  0
   -0.7081   -0.5054    0.9868 H   0  0  0  0  0  0  0  0  0  0  0  0
   -0.6003    0.2161   -0.6739 H   0  0  0  0  0  0  0  0  0  0  0  0
    0.2335    1.1699    2.8788 H   0  0  0  0  0  0  0  0  0  0  0  0
    1.0688   -2.0016    0.5050 H   0  0  0  0  0  0  0  0  0  0  0  0
    1.1412   -1.3213   -1.1907 H   0  0  0  0  0  0  0  0  0  0  0  0
  1  4  1  0
  1  5  1  0
  1  8  1  0
  1  9  1  0
  2  4  1  0
  2  7  1  0
  2 11  1  0
  2 12  1  0
  3  5  1  0
  3  6  2  0
  3 10  1  0
M  END
