COCOC=O_4
     RDKit          3D

 12 11  0  0  0  0  0  0  0  0999 V2000
   -0.6661    0.0295    0.3230 C   0  0  0  0  0  0  0  0  0  0  0  0
    1.4913   -0.8445    0.2755 C   0  0  0  0  0  0  0  0  0  0  0  0
    0.2406    1.5290    1.7548 C   0  0  0  0  0  0  0  0  0  0  0  0
    0.5196   -0.1050   -0.4212 O   0  0  0  0  0  0  0  0  0  0  0  0
   -0.4585    0.3777    1.6663 O   0  0  0  0  0  0  0  0  0  0  0  0
    0.6374    2.0864    2.7467 O   0  0  0  0  0  0  0  0  0  0  0  0
    1.0792   -1.2173    1.2181 H   0  0  0  0  0  0  0  0  0  0  0  0
   -1.1994   -0.9297    0.3038 H   0  0  0  0  0  0  0  0  0  0  0  0
   -1.2993    0.7880   -0.1549 H   0  0  0  0  0  0  0  0  0  0  0  0
    0.5080    2.0004    0.8185 H   0  0  0  0  0  0  0  0  0  0  0  0
    1.8144   -1.6819   -0.3486 H   0  0  0  0  0  0  0  0  0  0  0  0
    2.3431   -0.1919    0.4857 H   0  0  0  0  0  0  0  0  0  0  0  0
  1  4  1  0
  1  5  1  0
  1  8  1  0
  1  9  1  0
  2  4  1  0
  2  7  1  0
  2 11  1  0
  2 12  1  0
  3  5  1  0
  3  6  2  0
  3 10  1  0
M  END
