COCOC=O_0
     RDKit          3D

 12 11  0  0  0  0  0  0  0  0999 V2000
   -0.4328    0.4426   -0.1042 C   0  0  0  0  0  0  0  0  0  0  0  0
    1.4285   -0.8708    0.3601 C   0  0  0  0  0  0  0  0  0  0  0  0
    0.1561    1.2091    1.9466 C   0  0  0  0  0  0  0  0  0  0  0  0
    0.5056   -0.4761   -0.6094 O   0  0  0  0  0  0  0  0  0  0  0  0
    0.0949    1.5152    0.6338 O   0  0  0  0  0  0  0  0  0  0  0  0
   -0.1252    0.1651    2.4758 O   0  0  0  0  0  0  0  0  0  0  0  0
    2.0785   -1.6381   -0.0665 H   0  0  0  0  0  0  0  0  0  0  0  0
   -1.1514   -0.1014    0.5261 H   0  0  0  0  0  0  0  0  0  0  0  0
   -0.9715    0.8642   -0.9632 H   0  0  0  0  0  0  0  0  0  0  0  0
    0.5147    2.0006    2.5887 H   0  0  0  0  0  0  0  0  0  0  0  0
    2.0208   -0.0001    0.6530 H   0  0  0  0  0  0  0  0  0  0  0  0
    0.8919   -1.2694    1.2269 H   0  0  0  0  0  0  0  0  0  0  0  0
  1  4  1  0
  1  5  1  0
  1  8  1  0
  1  9  1  0
  2  4  1  0
  2  7  1  0
  2 11  1  0
  2 12  1  0
  3  5  1  0
  3  6  2  0
  3 10  1  0
M  END
