OC(C#C)O.O_6
     RDKit          3D

 12 10  0  0  0  0  0  0  0  0999 V2000
   -0.0862    1.9438   -1.2360 C   0  0  0  0  0  0  0  0  0  0  0  0
   -0.2122    0.9371   -0.5755 C   0  0  0  0  0  0  0  0  0  0  0  0
   -0.3359   -0.2506    0.2181 C   0  0  0  0  0  0  0  0  0  0  0  0
    0.4586   -1.3268   -0.2649 O   0  0  0  0  0  0  0  0  0  0  0  0
   -2.7333    0.8360    2.6394 O   0  0  0  0  0  0  0  0  0  0  0  0
   -0.1326   -0.0234    1.6056 O   0  0  0  0  0  0  0  0  0  0  0  0
   -1.8628    0.5621    2.2864 H   0  0  0  0  0  0  0  0  0  0  0  0
    0.4123   -2.0728    0.3682 H   0  0  0  0  0  0  0  0  0  0  0  0
    0.0295    2.8267   -1.8223 H   0  0  0  0  0  0  0  0  0  0  0  0
   -1.3856   -0.5845    0.1322 H   0  0  0  0  0  0  0  0  0  0  0  0
    0.8101    0.1986    1.7408 H   0  0  0  0  0  0  0  0  0  0  0  0
   -2.7213    0.5944    3.5804 H   0  0  0  0  0  0  0  0  0  0  0  0
  1  2  3  0
  1  9  1  0
  2  3  1  0
  3  4  1  0
  3  6  1  0
  3 10  1  0
  4  8  1  0
  5  7  1  0
  5 12  1  0
  6 11  1  0
M  END
