OC(C#C)O.O_18
     RDKit          3D

 12 10  0  0  0  0  0  0  0  0999 V2000
   -0.2051    1.7158   -1.2618 C   0  0  0  0  0  0  0  0  0  0  0  0
   -0.2581    0.7785   -0.4977 C   0  0  0  0  0  0  0  0  0  0  0  0
   -0.2955   -0.3193    0.4238 C   0  0  0  0  0  0  0  0  0  0  0  0
    0.5581   -1.3953    0.0451 O   0  0  0  0  0  0  0  0  0  0  0  0
   -2.6955    1.0137    2.6913 O   0  0  0  0  0  0  0  0  0  0  0  0
   -0.0778    0.0829    1.7720 O   0  0  0  0  0  0  0  0  0  0  0  0
   -1.8171    0.7187    2.3785 H   0  0  0  0  0  0  0  0  0  0  0  0
    0.3885   -1.6629   -0.8839 H   0  0  0  0  0  0  0  0  0  0  0  0
   -0.1608    2.5457   -1.9295 H   0  0  0  0  0  0  0  0  0  0  0  0
   -1.3231   -0.7247    0.4218 H   0  0  0  0  0  0  0  0  0  0  0  0
    0.8857    0.1787    1.9009 H   0  0  0  0  0  0  0  0  0  0  0  0
   -2.7589    0.7089    3.6118 H   0  0  0  0  0  0  0  0  0  0  0  0
  1  2  3  0
  1  9  1  0
  2  3  1  0
  3  4  1  0
  3  6  1  0
  3 10  1  0
  4  8  1  0
  5  7  1  0
  5 12  1  0
  6 11  1  0
M  END
