OC(C#C)O.O_10
     RDKit          3D

 12 10  0  0  0  0  0  0  0  0999 V2000
    0.0536    2.1698   -0.9270 C   0  0  0  0  0  0  0  0  0  0  0  0
    0.1915    1.2059   -0.2080 C   0  0  0  0  0  0  0  0  0  0  0  0
    0.3133    0.0571    0.6410 C   0  0  0  0  0  0  0  0  0  0  0  0
   -0.1753    0.2963    1.9628 O   0  0  0  0  0  0  0  0  0  0  0  0
   -2.8750   -0.6498    1.4296 O   0  0  0  0  0  0  0  0  0  0  0  0
   -0.2370   -1.1220    0.0585 O   0  0  0  0  0  0  0  0  0  0  0  0
   -2.0261   -0.2719    1.7373 H   0  0  0  0  0  0  0  0  0  0  0  0
    0.2659    1.0819    2.3509 H   0  0  0  0  0  0  0  0  0  0  0  0
   -0.0735    3.0145   -1.5647 H   0  0  0  0  0  0  0  0  0  0  0  0
    1.3888   -0.1731    0.7434 H   0  0  0  0  0  0  0  0  0  0  0  0
   -1.2051   -1.1175    0.2155 H   0  0  0  0  0  0  0  0  0  0  0  0
   -3.3804   -0.8505    2.2331 H   0  0  0  0  0  0  0  0  0  0  0  0
  1  2  3  0
  1  9  1  0
  2  3  1  0
  3  4  1  0
  3  6  1  0
  3 10  1  0
  4  8  1  0
  5  7  1  0
  5 12  1  0
  6 11  1  0
M  END
