OC(C#C)O.O_2
     RDKit          3D

 12 10  0  0  0  0  0  0  0  0999 V2000
   -0.2211    2.2818   -0.6026 C   0  0  0  0  0  0  0  0  0  0  0  0
    0.0838    1.3001    0.0365 C   0  0  0  0  0  0  0  0  0  0  0  0
    0.4061    0.1260    0.7939 C   0  0  0  0  0  0  0  0  0  0  0  0
   -0.1217    0.1622    2.1183 O   0  0  0  0  0  0  0  0  0  0  0  0
   -2.7566   -0.4416    0.9624 O   0  0  0  0  0  0  0  0  0  0  0  0
    0.0688   -1.0813    0.1234 O   0  0  0  0  0  0  0  0  0  0  0  0
   -3.5044   -0.0107    1.4054 H   0  0  0  0  0  0  0  0  0  0  0  0
    0.1405   -0.6568    2.5878 H   0  0  0  0  0  0  0  0  0  0  0  0
   -0.4928    3.1452   -1.1657 H   0  0  0  0  0  0  0  0  0  0  0  0
    1.5055    0.1020    0.8950 H   0  0  0  0  0  0  0  0  0  0  0  0
   -0.9099   -1.1370    0.0728 H   0  0  0  0  0  0  0  0  0  0  0  0
   -1.9576   -0.1493    1.4451 H   0  0  0  0  0  0  0  0  0  0  0  0
  1  2  3  0
  1  9  1  0
  2  3  1  0
  3  4  1  0
  3  6  1  0
  3 10  1  0
  4  8  1  0
  5  7  1  0
  5 12  1  0
  6 11  1  0
M  END
