OC(C#C)O.O_7
     RDKit          3D

 12 10  0  0  0  0  0  0  0  0999 V2000
    0.0019    1.9485   -1.1766 C   0  0  0  0  0  0  0  0  0  0  0  0
   -0.1423    0.9348   -0.5311 C   0  0  0  0  0  0  0  0  0  0  0  0
   -0.2879   -0.2619    0.2450 C   0  0  0  0  0  0  0  0  0  0  0  0
    0.5706   -1.3112   -0.1851 O   0  0  0  0  0  0  0  0  0  0  0  0
   -2.8480    0.8712    2.4731 O   0  0  0  0  0  0  0  0  0  0  0  0
   -0.1919   -0.0390    1.6446 O   0  0  0  0  0  0  0  0  0  0  0  0
   -2.9467    0.5561    3.3871 H   0  0  0  0  0  0  0  0  0  0  0  0
    0.5018   -2.0622    0.4400 H   0  0  0  0  0  0  0  0  0  0  0  0
    0.1278    2.8411   -1.7455 H   0  0  0  0  0  0  0  0  0  0  0  0
   -1.3186   -0.6251    0.0819 H   0  0  0  0  0  0  0  0  0  0  0  0
    0.7320    0.2076    1.8491 H   0  0  0  0  0  0  0  0  0  0  0  0
   -1.9581    0.5807    2.1898 H   0  0  0  0  0  0  0  0  0  0  0  0
  1  2  3  0
  1  9  1  0
  2  3  1  0
  3  4  1  0
  3  6  1  0
  3 10  1  0
  4  8  1  0
  5  7  1  0
  5 12  1  0
  6 11  1  0
M  END
