OC(C#C)O.O_17
     RDKit          3D

 12 10  0  0  0  0  0  0  0  0999 V2000
   -0.2908    1.8830   -0.8475 C   0  0  0  0  0  0  0  0  0  0  0  0
    0.0953    1.0379   -0.0718 C   0  0  0  0  0  0  0  0  0  0  0  0
    0.5497    0.0143    0.8238 C   0  0  0  0  0  0  0  0  0  0  0  0
   -0.4294   -0.9941    1.0549 O   0  0  0  0  0  0  0  0  0  0  0  0
   -2.9602    0.2181    1.8540 O   0  0  0  0  0  0  0  0  0  0  0  0
    1.8042   -0.5388    0.4467 O   0  0  0  0  0  0  0  0  0  0  0  0
   -3.2169    0.5068    2.7438 H   0  0  0  0  0  0  0  0  0  0  0  0
   -1.2877   -0.5846    1.3232 H   0  0  0  0  0  0  0  0  0  0  0  0
   -0.6283    2.6264   -1.5329 H   0  0  0  0  0  0  0  0  0  0  0  0
    0.7443    0.4877    1.8023 H   0  0  0  0  0  0  0  0  0  0  0  0
    1.6437   -1.1886   -0.2667 H   0  0  0  0  0  0  0  0  0  0  0  0
   -3.7833    0.1726    1.3427 H   0  0  0  0  0  0  0  0  0  0  0  0
  1  2  3  0
  1  9  1  0
  2  3  1  0
  3  4  1  0
  3  6  1  0
  3 10  1  0
  4  8  1  0
  5  7  1  0
  5 12  1  0
  6 11  1  0
M  END
