OC(C#C)O.O_8
     RDKit          3D

 12 10  0  0  0  0  0  0  0  0999 V2000
    0.7794    2.0775   -1.6712 C   0  0  0  0  0  0  0  0  0  0  0  0
    0.3950    1.5154   -0.6707 C   0  0  0  0  0  0  0  0  0  0  0  0
   -0.0859    0.8343    0.4944 C   0  0  0  0  0  0  0  0  0  0  0  0
   -1.4207    1.1888    0.8564 O   0  0  0  0  0  0  0  0  0  0  0  0
   -2.0721   -1.3056    2.4129 O   0  0  0  0  0  0  0  0  0  0  0  0
    0.0879   -0.5819    0.4436 O   0  0  0  0  0  0  0  0  0  0  0  0
   -2.8107   -1.8685    2.1329 H   0  0  0  0  0  0  0  0  0  0  0  0
   -1.7782    0.4726    1.4330 H   0  0  0  0  0  0  0  0  0  0  0  0
    1.1149    2.5691   -2.5555 H   0  0  0  0  0  0  0  0  0  0  0  0
    0.5446    1.1753    1.3361 H   0  0  0  0  0  0  0  0  0  0  0  0
   -0.5347   -0.9866    1.0930 H   0  0  0  0  0  0  0  0  0  0  0  0
   -1.9789   -1.4499    3.3673 H   0  0  0  0  0  0  0  0  0  0  0  0
  1  2  3  0
  1  9  1  0
  2  3  1  0
  3  4  1  0
  3  6  1  0
  3 10  1  0
  4  8  1  0
  5  7  1  0
  5 12  1  0
  6 11  1  0
M  END
