OC(C#C)O.O_13
     RDKit          3D

 12 10  0  0  0  0  0  0  0  0999 V2000
   -0.0930    1.8614   -1.2268 C   0  0  0  0  0  0  0  0  0  0  0  0
    0.0097    1.1190   -0.2764 C   0  0  0  0  0  0  0  0  0  0  0  0
    0.1265    0.2223    0.8360 C   0  0  0  0  0  0  0  0  0  0  0  0
   -0.9368   -0.7195    0.9065 O   0  0  0  0  0  0  0  0  0  0  0  0
   -3.1318    0.5111    2.3977 O   0  0  0  0  0  0  0  0  0  0  0  0
    1.4103   -0.3766    0.9435 O   0  0  0  0  0  0  0  0  0  0  0  0
   -2.4043    0.1054    1.8851 H   0  0  0  0  0  0  0  0  0  0  0  0
   -0.8535   -1.3560    0.1678 H   0  0  0  0  0  0  0  0  0  0  0  0
   -0.1877    2.5192   -2.0603 H   0  0  0  0  0  0  0  0  0  0  0  0
    0.0278    0.8234    1.7573 H   0  0  0  0  0  0  0  0  0  0  0  0
    1.5543   -0.9859    0.1900 H   0  0  0  0  0  0  0  0  0  0  0  0
   -3.2810   -0.0831    3.1519 H   0  0  0  0  0  0  0  0  0  0  0  0
  1  2  3  0
  1  9  1  0
  2  3  1  0
  3  4  1  0
  3  6  1  0
  3 10  1  0
  4  8  1  0
  5  7  1  0
  5 12  1  0
  6 11  1  0
M  END
