OC(C#C)O.O_19
     RDKit          3D

 12 10  0  0  0  0  0  0  0  0999 V2000
    0.6484    1.6140   -1.5377 C   0  0  0  0  0  0  0  0  0  0  0  0
    0.0719    1.1774   -0.5670 C   0  0  0  0  0  0  0  0  0  0  0  0
   -0.5892    0.6338    0.5830 C   0  0  0  0  0  0  0  0  0  0  0  0
   -1.4259   -0.4792    0.2785 O   0  0  0  0  0  0  0  0  0  0  0  0
   -1.9156   -0.7571    3.3049 O   0  0  0  0  0  0  0  0  0  0  0  0
    0.3007    0.3473    1.6539 O   0  0  0  0  0  0  0  0  0  0  0  0
   -2.4315   -1.2599    2.6529 H   0  0  0  0  0  0  0  0  0  0  0  0
   -2.0173   -0.2704   -0.4762 H   0  0  0  0  0  0  0  0  0  0  0  0
    1.1604    1.9981   -2.3902 H   0  0  0  0  0  0  0  0  0  0  0  0
   -1.2553    1.4169    0.9876 H   0  0  0  0  0  0  0  0  0  0  0  0
    0.8689   -0.4035    1.3892 H   0  0  0  0  0  0  0  0  0  0  0  0
   -1.1750   -0.3766    2.7935 H   0  0  0  0  0  0  0  0  0  0  0  0
  1  2  3  0
  1  9  1  0
  2  3  1  0
  3  4  1  0
  3  6  1  0
  3 10  1  0
  4  8  1  0
  5  7  1  0
  5 12  1  0
  6 11  1  0
M  END
