OC(C#C)O.O_14
     RDKit          3D

 12 10  0  0  0  0  0  0  0  0999 V2000
    0.5844    1.6652   -1.4976 C   0  0  0  0  0  0  0  0  0  0  0  0
   -0.0551    1.2146   -0.5739 C   0  0  0  0  0  0  0  0  0  0  0  0
   -0.7995    0.6591    0.5174 C   0  0  0  0  0  0  0  0  0  0  0  0
   -1.6290   -0.4337    0.1425 O   0  0  0  0  0  0  0  0  0  0  0  0
   -1.9435   -0.8441    3.0985 O   0  0  0  0  0  0  0  0  0  0  0  0
   -0.0052    0.3707    1.6608 O   0  0  0  0  0  0  0  0  0  0  0  0
   -1.8922   -0.7333    2.1256 H   0  0  0  0  0  0  0  0  0  0  0  0
   -1.0788   -1.1586   -0.2205 H   0  0  0  0  0  0  0  0  0  0  0  0
    1.1457    2.0652   -2.3108 H   0  0  0  0  0  0  0  0  0  0  0  0
   -1.5063    1.4346    0.8630 H   0  0  0  0  0  0  0  0  0  0  0  0
    0.6466   -0.3254    1.4385 H   0  0  0  0  0  0  0  0  0  0  0  0
   -1.2266   -0.2737    3.4289 H   0  0  0  0  0  0  0  0  0  0  0  0
  1  2  3  0
  1  9  1  0
  2  3  1  0
  3  4  1  0
  3  6  1  0
  3 10  1  0
  4  8  1  0
  5  7  1  0
  5 12  1  0
  6 11  1  0
M  END
