OC(C#C)O.O_5
     RDKit          3D

 12 10  0  0  0  0  0  0  0  0999 V2000
   -0.1045    2.1946   -0.8241 C   0  0  0  0  0  0  0  0  0  0  0  0
    0.1901    1.1701   -0.2508 C   0  0  0  0  0  0  0  0  0  0  0  0
    0.5102   -0.0404    0.4477 C   0  0  0  0  0  0  0  0  0  0  0  0
    0.8028    0.1737    1.8240 O   0  0  0  0  0  0  0  0  0  0  0  0
   -2.8628   -0.1644    1.6281 O   0  0  0  0  0  0  0  0  0  0  0  0
   -0.4522   -1.0678    0.2663 O   0  0  0  0  0  0  0  0  0  0  0  0
   -2.7016    0.5412    2.2744 H   0  0  0  0  0  0  0  0  0  0  0  0
    0.8867   -0.6956    2.2681 H   0  0  0  0  0  0  0  0  0  0  0  0
   -0.3647    3.0972   -1.3279 H   0  0  0  0  0  0  0  0  0  0  0  0
    1.4368   -0.4361   -0.0044 H   0  0  0  0  0  0  0  0  0  0  0  0
   -1.2853   -0.7870    0.7100 H   0  0  0  0  0  0  0  0  0  0  0  0
   -3.8151   -0.3449    1.6612 H   0  0  0  0  0  0  0  0  0  0  0  0
  1  2  3  0
  1  9  1  0
  2  3  1  0
  3  4  1  0
  3  6  1  0
  3 10  1  0
  4  8  1  0
  5  7  1  0
  5 12  1  0
  6 11  1  0
M  END
