OC(C#C)O.O_4
     RDKit          3D

 12 10  0  0  0  0  0  0  0  0999 V2000
    0.9816    1.5870   -1.7611 C   0  0  0  0  0  0  0  0  0  0  0  0
    0.2706    1.2441   -0.8435 C   0  0  0  0  0  0  0  0  0  0  0  0
   -0.5564    0.8079    0.2431 C   0  0  0  0  0  0  0  0  0  0  0  0
   -1.5281   -0.1564   -0.1356 O   0  0  0  0  0  0  0  0  0  0  0  0
   -1.7075   -0.7909    3.2289 O   0  0  0  0  0  0  0  0  0  0  0  0
    0.1942    0.3863    1.3755 O   0  0  0  0  0  0  0  0  0  0  0  0
   -2.5504   -0.9252    2.7669 H   0  0  0  0  0  0  0  0  0  0  0  0
   -1.0595   -0.9806   -0.3796 H   0  0  0  0  0  0  0  0  0  0  0  0
    1.6105    1.8883   -2.5672 H   0  0  0  0  0  0  0  0  0  0  0  0
   -1.1404    1.6849    0.5738 H   0  0  0  0  0  0  0  0  0  0  0  0
   -0.4224   -0.0162    2.0306 H   0  0  0  0  0  0  0  0  0  0  0  0
   -1.8515   -1.0884    4.1407 H   0  0  0  0  0  0  0  0  0  0  0  0
  1  2  3  0
  1  9  1  0
  2  3  1  0
  3  4  1  0
  3  6  1  0
  3 10  1  0
  4  8  1  0
  5  7  1  0
  5 12  1  0
  6 11  1  0
M  END
