OC(C#C)O.O_15
     RDKit          3D

 12 10  0  0  0  0  0  0  0  0999 V2000
    0.4170    1.9526   -1.5976 C   0  0  0  0  0  0  0  0  0  0  0  0
    0.2018    1.3459   -0.5727 C   0  0  0  0  0  0  0  0  0  0  0  0
   -0.0737    0.6012    0.6207 C   0  0  0  0  0  0  0  0  0  0  0  0
   -1.3698    0.8559    1.1685 O   0  0  0  0  0  0  0  0  0  0  0  0
   -1.8630   -1.6745    2.4882 O   0  0  0  0  0  0  0  0  0  0  0  0
    0.1970   -0.7945    0.4717 O   0  0  0  0  0  0  0  0  0  0  0  0
   -1.8571   -0.7628    2.1319 H   0  0  0  0  0  0  0  0  0  0  0  0
   -1.5537    1.8193    1.1653 H   0  0  0  0  0  0  0  0  0  0  0  0
    0.6077    2.4787   -2.5049 H   0  0  0  0  0  0  0  0  0  0  0  0
    0.6432    0.9459    1.3886 H   0  0  0  0  0  0  0  0  0  0  0  0
   -0.3353   -1.2889    1.1323 H   0  0  0  0  0  0  0  0  0  0  0  0
   -2.7735   -1.8382    2.7803 H   0  0  0  0  0  0  0  0  0  0  0  0
  1  2  3  0
  1  9  1  0
  2  3  1  0
  3  4  1  0
  3  6  1  0
  3 10  1  0
  4  8  1  0
  5  7  1  0
  5 12  1  0
  6 11  1  0
M  END
