OC(C#C)O.O_16
     RDKit          3D

 12 10  0  0  0  0  0  0  0  0999 V2000
    0.5990    1.5809   -1.5734 C   0  0  0  0  0  0  0  0  0  0  0  0
    0.0943    1.2572   -0.5218 C   0  0  0  0  0  0  0  0  0  0  0  0
   -0.4996    0.8392    0.7143 C   0  0  0  0  0  0  0  0  0  0  0  0
   -1.8115    0.3051    0.5532 O   0  0  0  0  0  0  0  0  0  0  0  0
   -1.8758   -1.6224    2.7695 O   0  0  0  0  0  0  0  0  0  0  0  0
    0.3381   -0.0278    1.4670 O   0  0  0  0  0  0  0  0  0  0  0  0
   -1.8820   -0.9886    2.0250 H   0  0  0  0  0  0  0  0  0  0  0  0
   -2.3655    0.9045    0.0098 H   0  0  0  0  0  0  0  0  0  0  0  0
    1.0475    1.8629   -2.4985 H   0  0  0  0  0  0  0  0  0  0  0  0
   -0.6081    1.7326    1.3549 H   0  0  0  0  0  0  0  0  0  0  0  0
    0.3740   -0.8938    1.0137 H   0  0  0  0  0  0  0  0  0  0  0  0
   -1.1697   -1.3092    3.3589 H   0  0  0  0  0  0  0  0  0  0  0  0
  1  2  3  0
  1  9  1  0
  2  3  1  0
  3  4  1  0
  3  6  1  0
  3 10  1  0
  4  8  1  0
  5  7  1  0
  5 12  1  0
  6 11  1  0
M  END
