COO.C=C=O_16
     RDKit          3D

 12 10  0  0  0  0  0  0  0  0999 V2000
    0.4866    0.5531    2.5121 C   0  0  0  0  0  0  0  0  0  0  0  0
   -3.7588    0.3429   -0.5609 C   0  0  0  0  0  0  0  0  0  0  0  0
   -2.7701    0.7441    0.2030 C   0  0  0  0  0  0  0  0  0  0  0  0
    0.9865   -0.5321    3.2150 O   0  0  0  0  0  0  0  0  0  0  0  0
    2.2938   -0.2090    3.7893 O   0  0  0  0  0  0  0  0  0  0  0  0
   -1.8875    1.0978    0.8819 O   0  0  0  0  0  0  0  0  0  0  0  0
    2.1409   -0.2519    4.7487 H   0  0  0  0  0  0  0  0  0  0  0  0
    0.3467    1.3879    3.2001 H   0  0  0  0  0  0  0  0  0  0  0  0
   -0.4653    0.2690    2.0610 H   0  0  0  0  0  0  0  0  0  0  0  0
    1.2078    0.8224    1.7386 H   0  0  0  0  0  0  0  0  0  0  0  0
   -3.9561    0.8189   -1.4996 H   0  0  0  0  0  0  0  0  0  0  0  0
   -4.3858   -0.4728   -0.2642 H   0  0  0  0  0  0  0  0  0  0  0  0
  1  4  1  0
  1  8  1  0
  1  9  1  0
  1 10  1  0
  2  3  2  0
  2 11  1  0
  2 12  1  0
  3  6  2  0
  4  5  1  0
  5  7  1  0
M  END
