COO.C=C=O_11
     RDKit          3D

 12 10  0  0  0  0  0  0  0  0999 V2000
    0.7184    1.0261    2.5557 C   0  0  0  0  0  0  0  0  0  0  0  0
   -3.5667    0.2167   -0.4978 C   0  0  0  0  0  0  0  0  0  0  0  0
   -2.5536    0.5663    0.2593 C   0  0  0  0  0  0  0  0  0  0  0  0
    1.2165    0.5240    3.7481 O   0  0  0  0  0  0  0  0  0  0  0  0
    1.4538   -0.9153    3.6333 O   0  0  0  0  0  0  0  0  0  0  0  0
   -1.6513    0.8766    0.9333 O   0  0  0  0  0  0  0  0  0  0  0  0
    0.8255   -1.3026    4.2665 H   0  0  0  0  0  0  0  0  0  0  0  0
   -0.2085    0.4997    2.3225 H   0  0  0  0  0  0  0  0  0  0  0  0
    1.4551    0.8437    1.7716 H   0  0  0  0  0  0  0  0  0  0  0  0
    0.5301    2.0957    2.6630 H   0  0  0  0  0  0  0  0  0  0  0  0
   -3.8381    0.7978   -1.3553 H   0  0  0  0  0  0  0  0  0  0  0  0
   -4.1425   -0.6583   -0.2752 H   0  0  0  0  0  0  0  0  0  0  0  0
  1  4  1  0
  1  8  1  0
  1  9  1  0
  1 10  1  0
  2  3  2  0
  2 11  1  0
  2 12  1  0
  3  6  2  0
  4  5  1  0
  5  7  1  0
M  END
