COO.C=C=O_14
     RDKit          3D

 12 10  0  0  0  0  0  0  0  0999 V2000
    0.4361    0.6238    2.5488 C   0  0  0  0  0  0  0  0  0  0  0  0
   -3.7379    0.2536   -0.5297 C   0  0  0  0  0  0  0  0  0  0  0  0
   -2.8624    0.6983    0.3406 C   0  0  0  0  0  0  0  0  0  0  0  0
    1.1495   -0.4903    2.9631 O   0  0  0  0  0  0  0  0  0  0  0  0
    2.4230   -0.0857    3.5610 O   0  0  0  0  0  0  0  0  0  0  0  0
   -2.0805    1.0904    1.1151 O   0  0  0  0  0  0  0  0  0  0  0  0
    2.3429   -0.3697    4.4875 H   0  0  0  0  0  0  0  0  0  0  0  0
    0.2044    1.2408    3.4182 H   0  0  0  0  0  0  0  0  0  0  0  0
   -0.4824    0.2899    2.0640 H   0  0  0  0  0  0  0  0  0  0  0  0
    1.0538    1.1845    1.8456 H   0  0  0  0  0  0  0  0  0  0  0  0
   -3.6959   -0.7563   -0.8837 H   0  0  0  0  0  0  0  0  0  0  0  0
   -4.5119    0.8910   -0.9055 H   0  0  0  0  0  0  0  0  0  0  0  0
  1  4  1  0
  1  8  1  0
  1  9  1  0
  1 10  1  0
  2  3  2  0
  2 11  1  0
  2 12  1  0
  3  6  2  0
  4  5  1  0
  5  7  1  0
M  END
