COO.C=C=O_2
     RDKit          3D

 12 10  0  0  0  0  0  0  0  0999 V2000
    1.1986    1.0315    2.9887 C   0  0  0  0  0  0  0  0  0  0  0  0
   -3.6582   -0.3155    0.9887 C   0  0  0  0  0  0  0  0  0  0  0  0
   -2.6617    0.2559    0.3548 C   0  0  0  0  0  0  0  0  0  0  0  0
    0.4533    0.0014    2.4327 O   0  0  0  0  0  0  0  0  0  0  0  0
    0.7330   -0.1039    1.0005 O   0  0  0  0  0  0  0  0  0  0  0  0
   -1.7560    0.7514   -0.1923 O   0  0  0  0  0  0  0  0  0  0  0  0
   -0.0977    0.2041    0.5806 H   0  0  0  0  0  0  0  0  0  0  0  0
    2.2536    0.8269    2.7979 H   0  0  0  0  0  0  0  0  0  0  0  0
    1.0074    1.0759    4.0625 H   0  0  0  0  0  0  0  0  0  0  0  0
    0.9098    1.9689    2.5108 H   0  0  0  0  0  0  0  0  0  0  0  0
   -3.4878   -0.8548    1.8982 H   0  0  0  0  0  0  0  0  0  0  0  0
   -4.6557   -0.2715    0.6019 H   0  0  0  0  0  0  0  0  0  0  0  0
  1  4  1  0
  1  8  1  0
  1  9  1  0
  1 10  1  0
  2  3  2  0
  2 11  1  0
  2 12  1  0
  3  6  2  0
  4  5  1  0
  5  7  1  0
M  END
