COO.C=C=O_10
     RDKit          3D

 12 10  0  0  0  0  0  0  0  0999 V2000
    0.7440    1.0339    2.5140 C   0  0  0  0  0  0  0  0  0  0  0  0
   -3.5759    0.1845   -0.4305 C   0  0  0  0  0  0  0  0  0  0  0  0
   -2.5692    0.5990    0.3020 C   0  0  0  0  0  0  0  0  0  0  0  0
    1.2552    0.5140    3.6932 O   0  0  0  0  0  0  0  0  0  0  0  0
    1.4155   -0.9363    3.5813 O   0  0  0  0  0  0  0  0  0  0  0  0
   -1.6721    0.9660    0.9541 O   0  0  0  0  0  0  0  0  0  0  0  0
    0.7940   -1.2873    4.2417 H   0  0  0  0  0  0  0  0  0  0  0  0
   -0.2114    0.5475    2.3109 H   0  0  0  0  0  0  0  0  0  0  0  0
    1.4482    0.8173    1.7089 H   0  0  0  0  0  0  0  0  0  0  0  0
    0.6058    2.1111    2.6223 H   0  0  0  0  0  0  0  0  0  0  0  0
   -4.4809    0.7535   -0.4931 H   0  0  0  0  0  0  0  0  0  0  0  0
   -3.5145   -0.7328   -0.9798 H   0  0  0  0  0  0  0  0  0  0  0  0
  1  4  1  0
  1  8  1  0
  1  9  1  0
  1 10  1  0
  2  3  2  0
  2 11  1  0
  2 12  1  0
  3  6  2  0
  4  5  1  0
  5  7  1  0
M  END
