COO.C=C=O_15
     RDKit          3D

 12 10  0  0  0  0  0  0  0  0999 V2000
    0.4402    0.5995    2.5538 C   0  0  0  0  0  0  0  0  0  0  0  0
   -3.7340    0.2817   -0.5696 C   0  0  0  0  0  0  0  0  0  0  0  0
   -2.8411    0.6955    0.2984 C   0  0  0  0  0  0  0  0  0  0  0  0
    1.1173   -0.5036    3.0502 O   0  0  0  0  0  0  0  0  0  0  0  0
    2.3982   -0.0959    3.6304 O   0  0  0  0  0  0  0  0  0  0  0  0
   -2.0448    1.0601    1.0715 O   0  0  0  0  0  0  0  0  0  0  0  0
    2.3036   -0.3139    4.5732 H   0  0  0  0  0  0  0  0  0  0  0  0
    0.2227    1.2826    3.3762 H   0  0  0  0  0  0  0  0  0  0  0  0
   -0.4854    0.2603    2.0865 H   0  0  0  0  0  0  0  0  0  0  0  0
    1.0784    1.0910    1.8178 H   0  0  0  0  0  0  0  0  0  0  0  0
   -3.4600   -0.3790   -1.3666 H   0  0  0  0  0  0  0  0  0  0  0  0
   -4.7563    0.5920   -0.4967 H   0  0  0  0  0  0  0  0  0  0  0  0
  1  4  1  0
  1  8  1  0
  1  9  1  0
  1 10  1  0
  2  3  2  0
  2 11  1  0
  2 12  1  0
  3  6  2  0
  4  5  1  0
  5  7  1  0
M  END
