COO.C=C=O_6
     RDKit          3D

 12 10  0  0  0  0  0  0  0  0999 V2000
    1.3839    0.4883    2.2144 C   0  0  0  0  0  0  0  0  0  0  0  0
   -2.4034    0.4877    0.3830 C   0  0  0  0  0  0  0  0  0  0  0  0
   -3.6495    0.1124    0.5472 C   0  0  0  0  0  0  0  0  0  0  0  0
    0.1108   -0.0515    2.0997 O   0  0  0  0  0  0  0  0  0  0  0  0
   -0.8116    0.6201    3.0148 O   0  0  0  0  0  0  0  0  0  0  0  0
   -4.7600   -0.2225    0.6896 O   0  0  0  0  0  0  0  0  0  0  0  0
   -0.9762   -0.0377    3.7099 H   0  0  0  0  0  0  0  0  0  0  0  0
    1.3169    1.5607    2.0200 H   0  0  0  0  0  0  0  0  0  0  0  0
    2.0415    0.0076    1.4870 H   0  0  0  0  0  0  0  0  0  0  0  0
    1.7467    0.3152    3.2290 H   0  0  0  0  0  0  0  0  0  0  0  0
   -2.0641    0.8757   -0.5548 H   0  0  0  0  0  0  0  0  0  0  0  0
   -1.6963    0.4143    1.1852 H   0  0  0  0  0  0  0  0  0  0  0  0
  1  4  1  0
  1  8  1  0
  1  9  1  0
  1 10  1  0
  2  3  2  0
  2 11  1  0
  2 12  1  0
  3  6  2  0
  4  5  1  0
  5  7  1  0
M  END
