COO.C=C=O_8
     RDKit          3D

 12 10  0  0  0  0  0  0  0  0999 V2000
    1.3651    0.6295    2.2048 C   0  0  0  0  0  0  0  0  0  0  0  0
   -2.5032    0.8315    0.6293 C   0  0  0  0  0  0  0  0  0  0  0  0
   -3.7035    0.3034    0.6578 C   0  0  0  0  0  0  0  0  0  0  0  0
    0.2379   -0.0453    1.7580 O   0  0  0  0  0  0  0  0  0  0  0  0
   -0.6953   -0.2643    2.8627 O   0  0  0  0  0  0  0  0  0  0  0  0
   -4.7735   -0.1662    0.6785 O   0  0  0  0  0  0  0  0  0  0  0  0
   -0.6307   -1.2163    3.0425 H   0  0  0  0  0  0  0  0  0  0  0  0
    1.8732    0.0088    2.9452 H   0  0  0  0  0  0  0  0  0  0  0  0
    1.0409    1.5662    2.6629 H   0  0  0  0  0  0  0  0  0  0  0  0
    2.0229    0.8260    1.3558 H   0  0  0  0  0  0  0  0  0  0  0  0
   -2.2718    1.6376   -0.0355 H   0  0  0  0  0  0  0  0  0  0  0  0
   -1.7231    0.4595    1.2632 H   0  0  0  0  0  0  0  0  0  0  0  0
  1  4  1  0
  1  8  1  0
  1  9  1  0
  1 10  1  0
  2  3  2  0
  2 11  1  0
  2 12  1  0
  3  6  2  0
  4  5  1  0
  5  7  1  0
M  END
