COO.C=C=O_7
     RDKit          3D

 12 10  0  0  0  0  0  0  0  0999 V2000
    1.3383    0.6103    2.1787 C   0  0  0  0  0  0  0  0  0  0  0  0
   -2.4365    0.6869    0.5275 C   0  0  0  0  0  0  0  0  0  0  0  0
   -3.7189    0.5202    0.7463 C   0  0  0  0  0  0  0  0  0  0  0  0
    0.2418   -0.1559    1.8089 O   0  0  0  0  0  0  0  0  0  0  0  0
   -0.7210   -0.2292    2.9075 O   0  0  0  0  0  0  0  0  0  0  0  0
   -4.8628    0.3722    0.9346 O   0  0  0  0  0  0  0  0  0  0  0  0
   -0.6408   -1.1404    3.2327 H   0  0  0  0  0  0  0  0  0  0  0  0
    1.8368    0.1239    3.0192 H   0  0  0  0  0  0  0  0  0  0  0  0
    0.9780    1.5964    2.4789 H   0  0  0  0  0  0  0  0  0  0  0  0
    2.0181    0.6936    1.3284 H   0  0  0  0  0  0  0  0  0  0  0  0
   -2.0862    1.1288   -0.3821 H   0  0  0  0  0  0  0  0  0  0  0  0
   -1.7081    0.3638    1.2443 H   0  0  0  0  0  0  0  0  0  0  0  0
  1  4  1  0
  1  8  1  0
  1  9  1  0
  1 10  1  0
  2  3  2  0
  2 11  1  0
  2 12  1  0
  3  6  2  0
  4  5  1  0
  5  7  1  0
M  END
