COO.C=C=O_3
     RDKit          3D

 12 10  0  0  0  0  0  0  0  0999 V2000
    1.6262    0.9513    2.3601 C   0  0  0  0  0  0  0  0  0  0  0  0
   -3.3986   -0.3792   -0.0079 C   0  0  0  0  0  0  0  0  0  0  0  0
   -3.0403    0.3485    1.0235 C   0  0  0  0  0  0  0  0  0  0  0  0
    0.6637   -0.0409    2.2379 O   0  0  0  0  0  0  0  0  0  0  0  0
   -0.3250    0.0832    3.3080 O   0  0  0  0  0  0  0  0  0  0  0  0
   -2.7074    0.9858    1.9443 O   0  0  0  0  0  0  0  0  0  0  0  0
   -1.1281    0.4058    2.8468 H   0  0  0  0  0  0  0  0  0  0  0  0
    2.3758    0.8242    1.5769 H   0  0  0  0  0  0  0  0  0  0  0  0
    2.0856    0.8580    3.3457 H   0  0  0  0  0  0  0  0  0  0  0  0
    1.1395    1.9235    2.2675 H   0  0  0  0  0  0  0  0  0  0  0  0
   -3.1949   -0.0526   -1.0071 H   0  0  0  0  0  0  0  0  0  0  0  0
   -3.8577   -1.3369    0.1293 H   0  0  0  0  0  0  0  0  0  0  0  0
  1  4  1  0
  1  8  1  0
  1  9  1  0
  1 10  1  0
  2  3  2  0
  2 11  1  0
  2 12  1  0
  3  6  2  0
  4  5  1  0
  5  7  1  0
M  END
