COO.C=C=O_12
     RDKit          3D

 12 10  0  0  0  0  0  0  0  0999 V2000
    0.7717    1.0637    2.4443 C   0  0  0  0  0  0  0  0  0  0  0  0
   -3.6303    0.1223   -0.3024 C   0  0  0  0  0  0  0  0  0  0  0  0
   -2.6141    0.5978    0.3781 C   0  0  0  0  0  0  0  0  0  0  0  0
    1.3255    0.5315    3.5984 O   0  0  0  0  0  0  0  0  0  0  0  0
    1.4541   -0.9213    3.4769 O   0  0  0  0  0  0  0  0  0  0  0  0
   -1.7083    1.0187    0.9839 O   0  0  0  0  0  0  0  0  0  0  0  0
    0.8595   -1.2624    4.1666 H   0  0  0  0  0  0  0  0  0  0  0  0
    0.6518    2.1421    2.5632 H   0  0  0  0  0  0  0  0  0  0  0  0
   -0.1974    0.5900    2.2797 H   0  0  0  0  0  0  0  0  0  0  0  0
    1.4383    0.8424    1.6093 H   0  0  0  0  0  0  0  0  0  0  0  0
   -4.4915    0.7276   -0.4989 H   0  0  0  0  0  0  0  0  0  0  0  0
   -3.6206   -0.8820   -0.6741 H   0  0  0  0  0  0  0  0  0  0  0  0
  1  4  1  0
  1  8  1  0
  1  9  1  0
  1 10  1  0
  2  3  2  0
  2 11  1  0
  2 12  1  0
  3  6  2  0
  4  5  1  0
  5  7  1  0
M  END
