COO.C=C=O_1
     RDKit          3D

 12 10  0  0  0  0  0  0  0  0999 V2000
    1.0950    1.1209    3.0238 C   0  0  0  0  0  0  0  0  0  0  0  0
   -3.6077   -0.0237    0.8011 C   0  0  0  0  0  0  0  0  0  0  0  0
   -2.4669    0.0900    0.1631 C   0  0  0  0  0  0  0  0  0  0  0  0
    0.2321    0.0833    2.7006 O   0  0  0  0  0  0  0  0  0  0  0  0
    0.6650   -0.5613    1.4603 O   0  0  0  0  0  0  0  0  0  0  0  0
   -1.4359    0.1819   -0.3789 O   0  0  0  0  0  0  0  0  0  0  0  0
   -0.0261   -0.3030    0.8149 H   0  0  0  0  0  0  0  0  0  0  0  0
    2.1016    0.7084    3.1123 H   0  0  0  0  0  0  0  0  0  0  0  0
    0.7824    1.5686    3.9689 H   0  0  0  0  0  0  0  0  0  0  0  0
    1.0663    1.8614    2.2229 H   0  0  0  0  0  0  0  0  0  0  0  0
   -4.5399    0.1215    0.2946 H   0  0  0  0  0  0  0  0  0  0  0  0
   -3.6271   -0.2777    1.8415 H   0  0  0  0  0  0  0  0  0  0  0  0
  1  4  1  0
  1  8  1  0
  1  9  1  0
  1 10  1  0
  2  3  2  0
  2 11  1  0
  2 12  1  0
  3  6  2  0
  4  5  1  0
  5  7  1  0
M  END
