COO.C=C=O
     RDKit          3D

 12 10  0  0  0  0  0  0  0  0999 V2000
    0.7060    1.0224    2.2157 C   0  0  0  0  0  0  0  0  0  0  0  0
   -2.5633   -0.1487    0.5224 C   0  0  0  0  0  0  0  0  0  0  0  0
   -2.6268    1.1173    0.8213 C   0  0  0  0  0  0  0  0  0  0  0  0
   -0.1230    0.2977    3.0842 O   0  0  0  0  0  0  0  0  0  0  0  0
    0.2763   -0.9579    3.0039 O   0  0  0  0  0  0  0  0  0  0  0  0
   -2.6859    2.3201    1.1060 O   0  0  0  0  0  0  0  0  0  0  0  0
   -0.4477   -1.4241    2.5122 H   0  0  0  0  0  0  0  0  0  0  0  0
    0.5984    0.6539    1.1717 H   0  0  0  0  0  0  0  0  0  0  0  0
    1.7679    0.9508    2.5388 H   0  0  0  0  0  0  0  0  0  0  0  0
    0.4054    2.0900    2.2394 H   0  0  0  0  0  0  0  0  0  0  0  0
   -1.6573   -0.5588    0.0976 H   0  0  0  0  0  0  0  0  0  0  0  0
   -3.4113   -0.7923    0.7118 H   0  0  0  0  0  0  0  0  0  0  0  0
  1  4  1  0
  1  8  1  0
  1  9  1  0
  1 10  1  0
  2  3  2  0
  2 11  1  0
  2 12  1  0
  3  6  2  0
  4  5  1  0
  5  7  1  0
M  END
