COO.C=C=O_5
     RDKit          3D

 12 10  0  0  0  0  0  0  0  0999 V2000
    0.4411    1.0679    2.2562 C   0  0  0  0  0  0  0  0  0  0  0  0
   -2.3723   -0.1129    0.5624 C   0  0  0  0  0  0  0  0  0  0  0  0
   -2.2554    1.1929    0.5144 C   0  0  0  0  0  0  0  0  0  0  0  0
    0.2908   -0.2533    1.8533 O   0  0  0  0  0  0  0  0  0  0  0  0
   -0.5225   -1.0043    2.8136 O   0  0  0  0  0  0  0  0  0  0  0  0
   -2.0976    2.3510    0.5231 O   0  0  0  0  0  0  0  0  0  0  0  0
    0.1233   -1.5690    3.2673 H   0  0  0  0  0  0  0  0  0  0  0  0
   -0.5512    1.4972    2.4130 H   0  0  0  0  0  0  0  0  0  0  0  0
    0.9666    1.6184    1.4728 H   0  0  0  0  0  0  0  0  0  0  0  0
    1.0097    1.0907    3.1873 H   0  0  0  0  0  0  0  0  0  0  0  0
   -3.0511   -0.6445   -0.0714 H   0  0  0  0  0  0  0  0  0  0  0  0
   -1.7426   -0.6638    1.2330 H   0  0  0  0  0  0  0  0  0  0  0  0
  1  4  1  0
  1  8  1  0
  1  9  1  0
  1 10  1  0
  2  3  2  0
  2 11  1  0
  2 12  1  0
  3  6  2  0
  4  5  1  0
  5  7  1  0
M  END
