COO.C=C=O_17
     RDKit          3D

 12 10  0  0  0  0  0  0  0  0999 V2000
    0.5002    0.4887    2.5028 C   0  0  0  0  0  0  0  0  0  0  0  0
   -3.9304    0.5586   -0.3374 C   0  0  0  0  0  0  0  0  0  0  0  0
   -2.7244    0.7572    0.1400 C   0  0  0  0  0  0  0  0  0  0  0  0
    0.9106   -0.5475    3.3272 O   0  0  0  0  0  0  0  0  0  0  0  0
    2.0437   -0.1235    4.1518 O   0  0  0  0  0  0  0  0  0  0  0  0
   -1.6515    0.9324    0.5675 O   0  0  0  0  0  0  0  0  0  0  0  0
    2.7717   -0.6950    3.8537 H   0  0  0  0  0  0  0  0  0  0  0  0
    1.3168    0.7508    1.8284 H   0  0  0  0  0  0  0  0  0  0  0  0
    0.2429    1.3442    3.1295 H   0  0  0  0  0  0  0  0  0  0  0  0
   -0.3708    0.1595    1.9345 H   0  0  0  0  0  0  0  0  0  0  0  0
   -4.0794    0.3124   -1.3688 H   0  0  0  0  0  0  0  0  0  0  0  0
   -4.7908    0.6325    0.2958 H   0  0  0  0  0  0  0  0  0  0  0  0
  1  4  1  0
  1  8  1  0
  1  9  1  0
  1 10  1  0
  2  3  2  0
  2 11  1  0
  2 12  1  0
  3  6  2  0
  4  5  1  0
  5  7  1  0
M  END
