COO.C=C=O_4
     RDKit          3D

 12 10  0  0  0  0  0  0  0  0999 V2000
    1.6149    1.0067    2.4434 C   0  0  0  0  0  0  0  0  0  0  0  0
   -3.4099   -0.2891   -0.0903 C   0  0  0  0  0  0  0  0  0  0  0  0
   -3.0500    0.3014    1.0248 C   0  0  0  0  0  0  0  0  0  0  0  0
    0.7245   -0.0155    2.1468 O   0  0  0  0  0  0  0  0  0  0  0  0
   -0.2663   -0.1447    3.2142 O   0  0  0  0  0  0  0  0  0  0  0  0
   -2.7154    0.8169    2.0184 O   0  0  0  0  0  0  0  0  0  0  0  0
   -1.0915    0.1979    2.8098 H   0  0  0  0  0  0  0  0  0  0  0  0
    2.0820    0.7811    3.4038 H   0  0  0  0  0  0  0  0  0  0  0  0
    1.0607    1.9444    2.5110 H   0  0  0  0  0  0  0  0  0  0  0  0
    2.3698    1.0660    1.6575 H   0  0  0  0  0  0  0  0  0  0  0  0
   -3.1785    0.1455   -1.0412 H   0  0  0  0  0  0  0  0  0  0  0  0
   -3.9016   -1.2402   -0.0732 H   0  0  0  0  0  0  0  0  0  0  0  0
  1  4  1  0
  1  8  1  0
  1  9  1  0
  1 10  1  0
  2  3  2  0
  2 11  1  0
  2 12  1  0
  3  6  2  0
  4  5  1  0
  5  7  1  0
M  END
