COO.C=C=O_13
     RDKit          3D

 12 10  0  0  0  0  0  0  0  0999 V2000
    0.8256    0.9278    2.4327 C   0  0  0  0  0  0  0  0  0  0  0  0
   -3.6687    0.3477   -0.3258 C   0  0  0  0  0  0  0  0  0  0  0  0
   -2.5937    0.6862    0.3462 C   0  0  0  0  0  0  0  0  0  0  0  0
    1.3294    0.4212    3.6208 O   0  0  0  0  0  0  0  0  0  0  0  0
    1.3776   -1.0406    3.5696 O   0  0  0  0  0  0  0  0  0  0  0  0
   -1.6364    0.9859    0.9450 O   0  0  0  0  0  0  0  0  0  0  0  0
    0.7497   -1.3150    4.2596 H   0  0  0  0  0  0  0  0  0  0  0  0
    1.4874    0.6222    1.6205 H   0  0  0  0  0  0  0  0  0  0  0  0
    0.7737    2.0163    2.4956 H   0  0  0  0  0  0  0  0  0  0  0  0
   -0.1698    0.5092    2.2764 H   0  0  0  0  0  0  0  0  0  0  0  0
   -3.8773    0.7802   -1.2830 H   0  0  0  0  0  0  0  0  0  0  0  0
   -4.3589   -0.3707    0.0673 H   0  0  0  0  0  0  0  0  0  0  0  0
  1  4  1  0
  1  8  1  0
  1  9  1  0
  1 10  1  0
  2  3  2  0
  2 11  1  0
  2 12  1  0
  3  6  2  0
  4  5  1  0
  5  7  1  0
M  END
