C.C=C=N_0
     RDKit          3D

 11  9  0  0  0  0  0  0  0  0999 V2000
    0.3196   -0.8647    1.8935 C   0  0  0  0  0  0  0  0  0  0  0  0
   -2.4114    0.4397   -0.1599 N   0  0  0  0  0  0  0  0  0  0  0  0
   -1.9323    1.4315    0.4791 C   0  0  0  0  0  0  0  0  0  0  0  0
   -1.4443    2.4276    1.1250 C   0  0  0  0  0  0  0  0  0  0  0  0
   -0.3032   -1.0248    1.0156 H   0  0  0  0  0  0  0  0  0  0  0  0
   -3.3393    0.3921   -0.4966 H   0  0  0  0  0  0  0  0  0  0  0  0
    0.8018   -1.7999    2.1722 H   0  0  0  0  0  0  0  0  0  0  0  0
   -0.2999   -0.5155    2.7175 H   0  0  0  0  0  0  0  0  0  0  0  0
    1.0784   -0.1175    1.6680 H   0  0  0  0  0  0  0  0  0  0  0  0
   -0.3849    2.5716    1.2021 H   0  0  0  0  0  0  0  0  0  0  0  0
   -2.0791    3.1346    1.6208 H   0  0  0  0  0  0  0  0  0  0  0  0
  1  5  1  0
  1  7  1  0
  1  8  1  0
  1  9  1  0
  2  3  2  0
  2  6  1  0
  3  4  2  0
  4 10  1  0
  4 11  1  0
M  END
