C.C=C=N
     RDKit          3D

 11  9  0  0  0  0  0  0  0  0999 V2000
    0.2565   -0.8268    1.7084 C   0  0  0  0  0  0  0  0  0  0  0  0
   -2.9054    0.6841    0.0997 N   0  0  0  0  0  0  0  0  0  0  0  0
   -2.1806    1.5722    0.6453 C   0  0  0  0  0  0  0  0  0  0  0  0
   -1.4359    2.4822    1.2054 C   0  0  0  0  0  0  0  0  0  0  0  0
    0.9506   -1.6755    1.8768 H   0  0  0  0  0  0  0  0  0  0  0  0
   -2.5002   -0.2485   -0.1344 H   0  0  0  0  0  0  0  0  0  0  0  0
   -0.7810   -1.1455    1.9383 H   0  0  0  0  0  0  0  0  0  0  0  0
    0.3171   -0.5033    0.6489 H   0  0  0  0  0  0  0  0  0  0  0  0
    0.5377    0.0187    2.3692 H   0  0  0  0  0  0  0  0  0  0  0  0
   -0.3586    2.4138    1.1406 H   0  0  0  0  0  0  0  0  0  0  0  0
   -1.8947    3.3032    1.7391 H   0  0  0  0  0  0  0  0  0  0  0  0
  1  5  1  0
  1  7  1  0
  1  8  1  0
  1  9  1  0
  2  3  2  0
  2  6  1  0
  3  4  2  0
  4 10  1  0
  4 11  1  0
M  END
