COCC(=O)O_1
     RDKit          3D

 12 11  0  0  0  0  0  0  0  0999 V2000
    0.4577    1.6271   -0.5343 C   0  0  0  0  0  0  0  0  0  0  0  0
   -0.0363   -0.6270   -0.0443 C   0  0  0  0  0  0  0  0  0  0  0  0
   -0.0194   -0.4407    1.4463 C   0  0  0  0  0  0  0  0  0  0  0  0
   -0.4206    0.5512   -0.7325 O   0  0  0  0  0  0  0  0  0  0  0  0
    0.9116    0.3951    1.9455 O   0  0  0  0  0  0  0  0  0  0  0  0
   -0.8192   -1.0274    2.1396 O   0  0  0  0  0  0  0  0  0  0  0  0
    0.7986    0.4012    2.9157 H   0  0  0  0  0  0  0  0  0  0  0  0
    1.4653    1.3424   -0.8452 H   0  0  0  0  0  0  0  0  0  0  0  0
    0.1108    2.4714   -1.1337 H   0  0  0  0  0  0  0  0  0  0  0  0
    0.4541    1.9015    0.5234 H   0  0  0  0  0  0  0  0  0  0  0  0
    0.9472   -0.9410   -0.4096 H   0  0  0  0  0  0  0  0  0  0  0  0
   -0.7658   -1.4012   -0.3092 H   0  0  0  0  0  0  0  0  0  0  0  0
  1  4  1  0
  1  8  1  0
  1  9  1  0
  1 10  1  0
  2  3  1  0
  2  4  1  0
  2 11  1  0
  2 12  1  0
  3  5  1  0
  3  6  2  0
  5  7  1  0
M  END
