COCC(=O)O_3
     RDKit          3D

 12 11  0  0  0  0  0  0  0  0999 V2000
    0.2382    1.5497   -0.5324 C   0  0  0  0  0  0  0  0  0  0  0  0
    0.7942   -0.5562    0.3477 C   0  0  0  0  0  0  0  0  0  0  0  0
   -0.3376   -0.5702    1.3347 C   0  0  0  0  0  0  0  0  0  0  0  0
    1.2210    0.7722    0.1039 O   0  0  0  0  0  0  0  0  0  0  0  0
   -0.2749    0.3909    2.2830 O   0  0  0  0  0  0  0  0  0  0  0  0
   -1.2040   -1.4086    1.2217 O   0  0  0  0  0  0  0  0  0  0  0  0
    0.5323    0.9405    2.1564 H   0  0  0  0  0  0  0  0  0  0  0  0
   -0.6693    1.5725    0.0766 H   0  0  0  0  0  0  0  0  0  0  0  0
    0.6246    2.5641   -0.6515 H   0  0  0  0  0  0  0  0  0  0  0  0
    0.0183    1.1268   -1.5153 H   0  0  0  0  0  0  0  0  0  0  0  0
    1.6516   -1.1160    0.7370 H   0  0  0  0  0  0  0  0  0  0  0  0
    0.4895   -1.0130   -0.6002 H   0  0  0  0  0  0  0  0  0  0  0  0
  1  4  1  0
  1  8  1  0
  1  9  1  0
  1 10  1  0
  2  3  1  0
  2  4  1  0
  2 11  1  0
  2 12  1  0
  3  5  1  0
  3  6  2  0
  5  7  1  0
M  END
