COCC(=O)O
     RDKit          3D

 12 11  0  0  0  0  0  0  0  0999 V2000
    0.3813    1.6124   -0.9805 C   0  0  0  0  0  0  0  0  0  0  0  0
    0.2671   -0.2226    0.4031 C   0  0  0  0  0  0  0  0  0  0  0  0
   -0.3022   -0.7402    1.6850 C   0  0  0  0  0  0  0  0  0  0  0  0
   -0.1627    1.1084    0.2186 O   0  0  0  0  0  0  0  0  0  0  0  0
    0.2807   -0.4039    2.9032 O   0  0  0  0  0  0  0  0  0  0  0  0
   -1.3401   -1.4529    1.6705 O   0  0  0  0  0  0  0  0  0  0  0  0
    1.1036    0.1855    2.9446 H   0  0  0  0  0  0  0  0  0  0  0  0
    0.0314    1.0270   -1.8598 H   0  0  0  0  0  0  0  0  0  0  0  0
    0.0340    2.6574   -1.1142 H   0  0  0  0  0  0  0  0  0  0  0  0
    1.4934    1.6303   -0.9424 H   0  0  0  0  0  0  0  0  0  0  0  0
    1.3776   -0.2773    0.4673 H   0  0  0  0  0  0  0  0  0  0  0  0
   -0.0801   -0.8715   -0.4338 H   0  0  0  0  0  0  0  0  0  0  0  0
  1  4  1  0
  1  8  1  0
  1  9  1  0
  1 10  1  0
  2  3  1  0
  2  4  1  0
  2 11  1  0
  2 12  1  0
  3  5  1  0
  3  6  2  0
  5  7  1  0
M  END
