COCC(=O)O_2
     RDKit          3D

 12 11  0  0  0  0  0  0  0  0999 V2000
    0.3839    1.1796   -1.4238 C   0  0  0  0  0  0  0  0  0  0  0  0
    0.2856    0.6097    0.8585 C   0  0  0  0  0  0  0  0  0  0  0  0
   -0.1058   -0.4679    1.8281 C   0  0  0  0  0  0  0  0  0  0  0  0
    0.0692    0.1892   -0.4765 O   0  0  0  0  0  0  0  0  0  0  0  0
    0.8348   -1.3809    2.1420 O   0  0  0  0  0  0  0  0  0  0  0  0
   -1.2269   -0.4903    2.2814 O   0  0  0  0  0  0  0  0  0  0  0  0
    0.4273   -2.0243    2.7534 H   0  0  0  0  0  0  0  0  0  0  0  0
    0.1953    0.7702   -2.4188 H   0  0  0  0  0  0  0  0  0  0  0  0
   -0.2498    2.0547   -1.2652 H   0  0  0  0  0  0  0  0  0  0  0  0
    1.4380    1.4519   -1.3362 H   0  0  0  0  0  0  0  0  0  0  0  0
   -0.3149    1.5077    1.0416 H   0  0  0  0  0  0  0  0  0  0  0  0
    1.3471    0.8531    0.9770 H   0  0  0  0  0  0  0  0  0  0  0  0
  1  4  1  0
  1  8  1  0
  1  9  1  0
  1 10  1  0
  2  3  1  0
  2  4  1  0
  2 11  1  0
  2 12  1  0
  3  5  1  0
  3  6  2  0
  5  7  1  0
M  END
