OC1COOC1_2
     RDKit          3D

 12 12  0  0  0  0  0  0  0  0999 V2000
   -0.7820    0.0573    0.6185 C   0  0  0  0  0  0  0  0  0  0  0  0
    1.5709   -0.3584    0.3916 C   0  0  0  0  0  0  0  0  0  0  0  0
    0.5794    0.7574    0.7637 C   0  0  0  0  0  0  0  0  0  0  0  0
   -0.5916   -1.0173   -0.2719 O   0  0  0  0  0  0  0  0  0  0  0  0
    0.8651   -1.2699   -0.4180 O   0  0  0  0  0  0  0  0  0  0  0  0
    0.7731    1.2395    2.0842 O   0  0  0  0  0  0  0  0  0  0  0  0
    1.6761    1.6098    2.1896 H   0  0  0  0  0  0  0  0  0  0  0  0
   -1.1044   -0.3555    1.5809 H   0  0  0  0  0  0  0  0  0  0  0  0
   -1.5687    0.7122    0.2241 H   0  0  0  0  0  0  0  0  0  0  0  0
    0.6505    1.6016    0.0583 H   0  0  0  0  0  0  0  0  0  0  0  0
    2.4462    0.0022   -0.1620 H   0  0  0  0  0  0  0  0  0  0  0  0
    1.9037   -0.8972    1.2854 H   0  0  0  0  0  0  0  0  0  0  0  0
  1  3  1  0
  1  4  1  0
  1  8  1  0
  1  9  1  0
  2  3  1  0
  2  5  1  0
  2 11  1  0
  2 12  1  0
  3  6  1  0
  3 10  1  0
  4  5  1  0
  6  7  1  0
M  END
