OC1COOC1_1
     RDKit          3D

 12 12  0  0  0  0  0  0  0  0999 V2000
   -0.7174    0.1334    0.6788 C   0  0  0  0  0  0  0  0  0  0  0  0
    1.6264   -0.3089    0.3131 C   0  0  0  0  0  0  0  0  0  0  0  0
    0.6505    0.8374    0.6340 C   0  0  0  0  0  0  0  0  0  0  0  0
   -0.5800   -1.0621   -0.0536 O   0  0  0  0  0  0  0  0  0  0  0  0
    0.8632   -1.3346   -0.2786 O   0  0  0  0  0  0  0  0  0  0  0  0
    0.9642    1.4952    1.8490 O   0  0  0  0  0  0  0  0  0  0  0  0
    0.9593    0.8548    2.5920 H   0  0  0  0  0  0  0  0  0  0  0  0
   -0.9984   -0.1306    1.7036 H   0  0  0  0  0  0  0  0  0  0  0  0
   -1.5232    0.7279    0.2311 H   0  0  0  0  0  0  0  0  0  0  0  0
    0.6695    1.5975   -0.1634 H   0  0  0  0  0  0  0  0  0  0  0  0
    2.4207   -0.0164   -0.3844 H   0  0  0  0  0  0  0  0  0  0  0  0
    2.0835   -0.7120    1.2228 H   0  0  0  0  0  0  0  0  0  0  0  0
  1  3  1  0
  1  4  1  0
  1  8  1  0
  1  9  1  0
  2  3  1  0
  2  5  1  0
  2 11  1  0
  2 12  1  0
  3  6  1  0
  3 10  1  0
  4  5  1  0
  6  7  1  0
M  END
