OC1COOC1_3
     RDKit          3D

 12 12  0  0  0  0  0  0  0  0999 V2000
   -0.7816    0.1417    0.5009 C   0  0  0  0  0  0  0  0  0  0  0  0
    1.5788   -0.2455    0.2546 C   0  0  0  0  0  0  0  0  0  0  0  0
    0.5809    0.7637    0.8483 C   0  0  0  0  0  0  0  0  0  0  0  0
   -0.5529   -1.2367    0.3403 O   0  0  0  0  0  0  0  0  0  0  0  0
    0.9041   -1.4778    0.2155 O   0  0  0  0  0  0  0  0  0  0  0  0
    0.7106    0.8680    2.2521 O   0  0  0  0  0  0  0  0  0  0  0  0
    1.6389    1.0621    2.5070 H   0  0  0  0  0  0  0  0  0  0  0  0
   -1.4904    0.2681    1.3279 H   0  0  0  0  0  0  0  0  0  0  0  0
   -1.2156    0.5303   -0.4285 H   0  0  0  0  0  0  0  0  0  0  0  0
    0.6932    1.7703    0.4109 H   0  0  0  0  0  0  0  0  0  0  0  0
    1.8849    0.0043   -0.7684 H   0  0  0  0  0  0  0  0  0  0  0  0
    2.4674   -0.3668    0.8837 H   0  0  0  0  0  0  0  0  0  0  0  0
  1  3  1  0
  1  4  1  0
  1  8  1  0
  1  9  1  0
  2  3  1  0
  2  5  1  0
  2 11  1  0
  2 12  1  0
  3  6  1  0
  3 10  1  0
  4  5  1  0
  6  7  1  0
M  END
