CO[C@@H](C=O)O_7
     RDKit          3D

 12 11  0  0  0  0  0  0  0  0999 V2000
   -0.2142   -0.0846   -0.9158 C   0  0  0  0  0  0  0  0  0  0  0  0
    1.1325    0.0856    1.0186 C   0  0  2  0  0  0  0  0  0  0  0  0
    0.3076    1.2176    1.5589 C   0  0  0  0  0  0  0  0  0  0  0  0
    0.3648   -0.7661    0.1663 O   0  0  0  0  0  0  0  0  0  0  0  0
    1.7753   -0.6215    2.0677 O   0  0  0  0  0  0  0  0  0  0  0  0
   -0.2197    2.0166    0.8475 O   0  0  0  0  0  0  0  0  0  0  0  0
    2.0014   -1.5191    1.7523 H   0  0  0  0  0  0  0  0  0  0  0  0
   -0.7472   -0.8084   -1.5357 H   0  0  0  0  0  0  0  0  0  0  0  0
    0.5651    0.4043   -1.5046 H   0  0  0  0  0  0  0  0  0  0  0  0
    0.1514    1.3026    2.6265 H   0  0  0  0  0  0  0  0  0  0  0  0
   -0.9172    0.6604   -0.5326 H   0  0  0  0  0  0  0  0  0  0  0  0
    1.9343    0.5079    0.3910 H   0  0  0  0  0  0  0  0  0  0  0  0
  1  4  1  0
  1  8  1  0
  1  9  1  0
  1 11  1  0
  2  3  1  0
  2  4  1  0
  2  5  1  0
  2 12  1  6
  3  6  2  0
  3 10  1  0
  5  7  1  0
M  END
