CO[C@@H](C=O)O_3
     RDKit          3D

 12 11  0  0  0  0  0  0  0  0999 V2000
    0.0057   -0.4451   -1.0891 C   0  0  0  0  0  0  0  0  0  0  0  0
    0.7993    0.6568    0.7841 C   0  0  2  0  0  0  0  0  0  0  0  0
    0.4267    1.1372    2.1584 C   0  0  0  0  0  0  0  0  0  0  0  0
   -0.3525    0.2484    0.0666 O   0  0  0  0  0  0  0  0  0  0  0  0
    1.7532   -0.3700    0.9095 O   0  0  0  0  0  0  0  0  0  0  0  0
    0.4480    0.3829    3.0799 O   0  0  0  0  0  0  0  0  0  0  0  0
    1.4774   -0.9327    1.6644 H   0  0  0  0  0  0  0  0  0  0  0  0
    0.5604    0.2182   -1.7568 H   0  0  0  0  0  0  0  0  0  0  0  0
   -0.9055   -0.7917   -1.5830 H   0  0  0  0  0  0  0  0  0  0  0  0
    0.0220    2.1282    2.3155 H   0  0  0  0  0  0  0  0  0  0  0  0
    0.6265   -1.3011   -0.8113 H   0  0  0  0  0  0  0  0  0  0  0  0
    1.2728    1.4640    0.2022 H   0  0  0  0  0  0  0  0  0  0  0  0
  1  4  1  0
  1  8  1  0
  1  9  1  0
  1 11  1  0
  2  3  1  0
  2  4  1  0
  2  5  1  0
  2 12  1  6
  3  6  2  0
  3 10  1  0
  5  7  1  0
M  END
