CO[C@@H](C=O)O_4
     RDKit          3D

 12 11  0  0  0  0  0  0  0  0999 V2000
   -0.0297   -0.3556   -1.1711 C   0  0  0  0  0  0  0  0  0  0  0  0
    0.7668    0.5329    0.8084 C   0  0  2  0  0  0  0  0  0  0  0  0
    0.3573    1.0952    2.1377 C   0  0  0  0  0  0  0  0  0  0  0  0
   -0.3155    0.5008   -0.1100 O   0  0  0  0  0  0  0  0  0  0  0  0
    1.3784   -0.7242    1.0095 O   0  0  0  0  0  0  0  0  0  0  0  0
    1.0567    0.9428    3.0911 O   0  0  0  0  0  0  0  0  0  0  0  0
    1.8236   -0.7180    1.8859 H   0  0  0  0  0  0  0  0  0  0  0  0
    0.8322    0.0241   -1.7247 H   0  0  0  0  0  0  0  0  0  0  0  0
   -0.9029   -0.4060   -1.8263 H   0  0  0  0  0  0  0  0  0  0  0  0
   -0.5590    1.6605    2.2413 H   0  0  0  0  0  0  0  0  0  0  0  0
    0.1924   -1.3467   -0.7650 H   0  0  0  0  0  0  0  0  0  0  0  0
    1.5337    1.1894    0.3634 H   0  0  0  0  0  0  0  0  0  0  0  0
  1  4  1  0
  1  8  1  0
  1  9  1  0
  1 11  1  0
  2  3  1  0
  2  4  1  0
  2  5  1  0
  2 12  1  6
  3  6  2  0
  3 10  1  0
  5  7  1  0
M  END
