CO[C@@H](C=O)O_10
     RDKit          3D

 12 11  0  0  0  0  0  0  0  0999 V2000
    0.0715   -0.1130   -0.9583 C   0  0  0  0  0  0  0  0  0  0  0  0
    1.1269    0.4461    1.0351 C   0  0  2  0  0  0  0  0  0  0  0  0
   -0.0329    1.0309    1.7925 C   0  0  0  0  0  0  0  0  0  0  0  0
    1.0372    0.6979   -0.3589 O   0  0  0  0  0  0  0  0  0  0  0  0
    1.2817   -0.9252    1.3166 O   0  0  0  0  0  0  0  0  0  0  0  0
   -0.1514    0.9259    2.9743 O   0  0  0  0  0  0  0  0  0  0  0  0
    2.0626   -1.2787    0.8412 H   0  0  0  0  0  0  0  0  0  0  0  0
   -0.9161    0.1322   -0.5616 H   0  0  0  0  0  0  0  0  0  0  0  0
    0.3000   -1.1620   -0.7547 H   0  0  0  0  0  0  0  0  0  0  0  0
   -0.7757    1.6180    1.2686 H   0  0  0  0  0  0  0  0  0  0  0  0
    0.0884    0.0663   -2.0360 H   0  0  0  0  0  0  0  0  0  0  0  0
    2.0420    0.9569    1.3815 H   0  0  0  0  0  0  0  0  0  0  0  0
  1  4  1  0
  1  8  1  0
  1  9  1  0
  1 11  1  0
  2  3  1  0
  2  4  1  0
  2  5  1  0
  2 12  1  1
  3  6  2  0
  3 10  1  0
  5  7  1  0
M  END
