CO[C@@H](C=O)O_9
     RDKit          3D

 12 11  0  0  0  0  0  0  0  0999 V2000
   -0.2326   -0.1419   -0.9132 C   0  0  0  0  0  0  0  0  0  0  0  0
    1.3229    0.3558    0.8086 C   0  0  2  0  0  0  0  0  0  0  0  0
    0.1717    0.8770    1.6252 C   0  0  0  0  0  0  0  0  0  0  0  0
    0.8881   -0.5740   -0.1880 O   0  0  0  0  0  0  0  0  0  0  0  0
    2.3118   -0.1912    1.6552 O   0  0  0  0  0  0  0  0  0  0  0  0
   -0.8347    0.2587    1.7800 O   0  0  0  0  0  0  0  0  0  0  0  0
    1.9722   -1.0377    2.0041 H   0  0  0  0  0  0  0  0  0  0  0  0
   -0.0513    0.8537   -1.3230 H   0  0  0  0  0  0  0  0  0  0  0  0
   -1.0983   -0.1313   -0.2447 H   0  0  0  0  0  0  0  0  0  0  0  0
    0.2836    1.7918    2.1920 H   0  0  0  0  0  0  0  0  0  0  0  0
   -0.4087   -0.8500   -1.7258 H   0  0  0  0  0  0  0  0  0  0  0  0
    1.8094    1.1843    0.2696 H   0  0  0  0  0  0  0  0  0  0  0  0
  1  4  1  0
  1  8  1  0
  1  9  1  0
  1 11  1  0
  2  3  1  0
  2  4  1  0
  2  5  1  0
  2 12  1  6
  3  6  2  0
  3 10  1  0
  5  7  1  0
M  END
