CO[C@@H](C=O)O_5
     RDKit          3D

 12 11  0  0  0  0  0  0  0  0999 V2000
   -0.0567   -0.2731   -1.1237 C   0  0  0  0  0  0  0  0  0  0  0  0
    1.0180    0.5447    0.7816 C   0  0  2  0  0  0  0  0  0  0  0  0
    0.3680    1.1272    2.0026 C   0  0  0  0  0  0  0  0  0  0  0  0
    0.3001    0.8702   -0.4112 O   0  0  0  0  0  0  0  0  0  0  0  0
    1.2133   -0.8389    0.9860 O   0  0  0  0  0  0  0  0  0  0  0  0
    0.6425    0.7097    3.0850 O   0  0  0  0  0  0  0  0  0  0  0  0
    1.3904   -0.9916    1.9410 H   0  0  0  0  0  0  0  0  0  0  0  0
    0.8520   -0.8193   -1.3883 H   0  0  0  0  0  0  0  0  0  0  0  0
   -0.5980    0.0240   -2.0252 H   0  0  0  0  0  0  0  0  0  0  0  0
   -0.3271    1.9515    1.9181 H   0  0  0  0  0  0  0  0  0  0  0  0
   -0.6902   -0.8977   -0.4887 H   0  0  0  0  0  0  0  0  0  0  0  0
    2.0217    0.9885    0.6629 H   0  0  0  0  0  0  0  0  0  0  0  0
  1  4  1  0
  1  8  1  0
  1  9  1  0
  1 11  1  0
  2  3  1  0
  2  4  1  0
  2  5  1  0
  2 12  1  6
  3  6  2  0
  3 10  1  0
  5  7  1  0
M  END
