CO[C@@H](C=O)O_0
     RDKit          3D

 12 11  0  0  0  0  0  0  0  0999 V2000
   -0.1502   -0.3163   -0.7799 C   0  0  0  0  0  0  0  0  0  0  0  0
    1.2517    0.8109    0.6914 C   0  0  2  0  0  0  0  0  0  0  0  0
    0.2834    0.8856    1.8358 C   0  0  0  0  0  0  0  0  0  0  0  0
    0.5577    0.8595   -0.5440 O   0  0  0  0  0  0  0  0  0  0  0  0
    2.0380   -0.3490    0.8521 O   0  0  0  0  0  0  0  0  0  0  0  0
   -0.3091   -0.0996    2.1450 O   0  0  0  0  0  0  0  0  0  0  0  0
    1.4799   -1.0456    1.2641 H   0  0  0  0  0  0  0  0  0  0  0  0
   -0.7244   -0.1953   -1.7015 H   0  0  0  0  0  0  0  0  0  0  0  0
   -0.8281   -0.5051    0.0580 H   0  0  0  0  0  0  0  0  0  0  0  0
    0.0346    1.8200    2.3212 H   0  0  0  0  0  0  0  0  0  0  0  0
    0.5585   -1.1403   -0.8934 H   0  0  0  0  0  0  0  0  0  0  0  0
    1.9420    1.6704    0.6914 H   0  0  0  0  0  0  0  0  0  0  0  0
  1  4  1  0
  1  8  1  0
  1  9  1  0
  1 11  1  0
  2  3  1  0
  2  4  1  0
  2  5  1  0
  2 12  1  6
  3  6  2  0
  3 10  1  0
  5  7  1  0
M  END
