CO[C@@H](C=O)O_1
     RDKit          3D

 12 11  0  0  0  0  0  0  0  0999 V2000
   -0.1513   -0.2380   -0.9582 C   0  0  0  0  0  0  0  0  0  0  0  0
    1.1579    0.6674    0.7164 C   0  0  2  0  0  0  0  0  0  0  0  0
    0.2081    0.8552    1.8647 C   0  0  0  0  0  0  0  0  0  0  0  0
    0.5318    0.8999   -0.5371 O   0  0  0  0  0  0  0  0  0  0  0  0
    1.7510   -0.6102    0.8141 O   0  0  0  0  0  0  0  0  0  0  0  0
    0.3851    0.2854    2.8969 O   0  0  0  0  0  0  0  0  0  0  0  0
    1.8595   -0.8364    1.7650 H   0  0  0  0  0  0  0  0  0  0  0  0
   -0.5922   -0.0409   -1.9383 H   0  0  0  0  0  0  0  0  0  0  0  0
   -0.9346   -0.4817   -0.2359 H   0  0  0  0  0  0  0  0  0  0  0  0
   -0.6172    1.5493    1.7872 H   0  0  0  0  0  0  0  0  0  0  0  0
    0.5637   -1.0630   -1.0268 H   0  0  0  0  0  0  0  0  0  0  0  0
    1.9722    1.4082    0.7923 H   0  0  0  0  0  0  0  0  0  0  0  0
  1  4  1  0
  1  8  1  0
  1  9  1  0
  1 11  1  0
  2  3  1  0
  2  4  1  0
  2  5  1  0
  2 12  1  1
  3  6  2  0
  3 10  1  0
  5  7  1  0
M  END
