CO[C@@H](C=O)O_6
     RDKit          3D

 12 11  0  0  0  0  0  0  0  0999 V2000
   -0.2459   -0.2023   -0.9076 C   0  0  0  0  0  0  0  0  0  0  0  0
    1.2582    0.3700    0.8240 C   0  0  2  0  0  0  0  0  0  0  0  0
    0.1631    0.8485    1.7344 C   0  0  0  0  0  0  0  0  0  0  0  0
    0.7860   -0.6440   -0.0650 O   0  0  0  0  0  0  0  0  0  0  0  0
    2.4028   -0.0342    1.5556 O   0  0  0  0  0  0  0  0  0  0  0  0
   -0.8740    1.2664    1.3196 O   0  0  0  0  0  0  0  0  0  0  0  0
    2.2766   -0.9598    1.8443 H   0  0  0  0  0  0  0  0  0  0  0  0
    0.0951    0.6557   -1.4908 H   0  0  0  0  0  0  0  0  0  0  0  0
   -1.1105    0.0754   -0.2983 H   0  0  0  0  0  0  0  0  0  0  0  0
    0.3081    0.8277    2.8063 H   0  0  0  0  0  0  0  0  0  0  0  0
   -0.5169   -1.0201   -1.5789 H   0  0  0  0  0  0  0  0  0  0  0  0
    1.5914    1.2121    0.1968 H   0  0  0  0  0  0  0  0  0  0  0  0
  1  4  1  0
  1  8  1  0
  1  9  1  0
  1 11  1  0
  2  3  1  0
  2  4  1  0
  2  5  1  0
  2 12  1  6
  3  6  2  0
  3 10  1  0
  5  7  1  0
M  END
