CO[C@@H](C=O)O
     RDKit          3D

 12 11  0  0  0  0  0  0  0  0999 V2000
   -0.0266   -0.2723   -1.1739 C   0  0  0  0  0  0  0  0  0  0  0  0
    0.7464    0.3516    0.9167 C   0  0  2  0  0  0  0  0  0  0  0  0
    0.3590    1.1603    2.1185 C   0  0  0  0  0  0  0  0  0  0  0  0
   -0.4030    0.1569    0.1166 O   0  0  0  0  0  0  0  0  0  0  0  0
    1.2492   -0.8914    1.3361 O   0  0  0  0  0  0  0  0  0  0  0  0
   -0.4859    0.7465    2.8967 O   0  0  0  0  0  0  0  0  0  0  0  0
    2.1720   -0.7308    1.6661 H   0  0  0  0  0  0  0  0  0  0  0  0
   -0.9458   -0.4802   -1.7590 H   0  0  0  0  0  0  0  0  0  0  0  0
    0.5665   -1.2130   -1.1357 H   0  0  0  0  0  0  0  0  0  0  0  0
    0.8308    2.1203    2.3020 H   0  0  0  0  0  0  0  0  0  0  0  0
    0.5390    0.5222   -1.7090 H   0  0  0  0  0  0  0  0  0  0  0  0
    1.5325    0.9251    0.3651 H   0  0  0  0  0  0  0  0  0  0  0  0
  1  4  1  0
  1  8  1  0
  1  9  1  0
  1 11  1  0
  2  3  1  0
  2  4  1  0
  2  5  1  0
  2 12  1  6
  3  6  2  0
  3 10  1  0
  5  7  1  0
M  END
