OCC=C.O=O_3
     RDKit          3D

 12 10  0  0  0  0  0  0  0  0999 V2000
    0.1876   -0.2210    1.1864 C   0  0  0  0  0  0  0  0  0  0  0  0
   -0.1122    1.7598    2.6062 C   0  0  0  0  0  0  0  0  0  0  0  0
    0.6800    1.0053    1.8729 C   0  0  0  0  0  0  0  0  0  0  0  0
   -0.4725    2.5084   -1.0817 O   0  0  0  0  0  0  0  0  0  0  0  0
   -1.5555    2.3330   -1.3571 O   0  0  0  0  0  0  0  0  0  0  0  0
   -1.0781   -0.0534    0.5859 O   0  0  0  0  0  0  0  0  0  0  0  0
   -1.0653    0.7462   -0.0088 H   0  0  0  0  0  0  0  0  0  0  0  0
    0.8939   -0.5633    0.4174 H   0  0  0  0  0  0  0  0  0  0  0  0
    0.0897   -1.0418    1.9085 H   0  0  0  0  0  0  0  0  0  0  0  0
    1.7252    1.2599    1.7799 H   0  0  0  0  0  0  0  0  0  0  0  0
   -1.1529    1.5219    2.7243 H   0  0  0  0  0  0  0  0  0  0  0  0
    0.2466    2.6386    3.1087 H   0  0  0  0  0  0  0  0  0  0  0  0
  1  3  1  0
  1  6  1  0
  1  8  1  0
  1  9  1  0
  2  3  2  0
  2 11  1  0
  2 12  1  0
  3 10  1  0
  4  5  2  0
  6  7  1  0
M  END
