OCC=C.O=O_7
     RDKit          3D

 12 10  0  0  0  0  0  0  0  0999 V2000
   -0.1075   -0.0621    1.2793 C   0  0  0  0  0  0  0  0  0  0  0  0
   -0.0382    1.6534    3.0482 C   0  0  0  0  0  0  0  0  0  0  0  0
    0.3506    1.2271    1.8628 C   0  0  0  0  0  0  0  0  0  0  0  0
   -0.8688    2.4811   -1.2011 O   0  0  0  0  0  0  0  0  0  0  0  0
   -0.8393    1.8619   -2.1471 O   0  0  0  0  0  0  0  0  0  0  0  0
    0.2204   -0.2188   -0.0862 O   0  0  0  0  0  0  0  0  0  0  0  0
   -0.1269    0.5545   -0.6099 H   0  0  0  0  0  0  0  0  0  0  0  0
    0.3492   -0.9027    1.8170 H   0  0  0  0  0  0  0  0  0  0  0  0
   -1.1945   -0.1721    1.3914 H   0  0  0  0  0  0  0  0  0  0  0  0
    1.0509    1.8071    1.2834 H   0  0  0  0  0  0  0  0  0  0  0  0
   -0.7218    1.0824    3.6477 H   0  0  0  0  0  0  0  0  0  0  0  0
    0.3126    2.5819    3.4572 H   0  0  0  0  0  0  0  0  0  0  0  0
  1  3  1  0
  1  6  1  0
  1  8  1  0
  1  9  1  0
  2  3  2  0
  2 11  1  0
  2 12  1  0
  3 10  1  0
  4  5  2  0
  6  7  1  0
M  END
