OCC=C.O=O_10
     RDKit          3D

 12 10  0  0  0  0  0  0  0  0999 V2000
   -0.6743    0.7407    1.2342 C   0  0  0  0  0  0  0  0  0  0  0  0
    0.7627    1.3830    3.1232 C   0  0  0  0  0  0  0  0  0  0  0  0
   -0.2911    0.7338    2.6739 C   0  0  0  0  0  0  0  0  0  0  0  0
   -0.3895    0.5016   -2.5571 O   0  0  0  0  0  0  0  0  0  0  0  0
   -0.5108    1.6259   -2.5365 O   0  0  0  0  0  0  0  0  0  0  0  0
    0.3994    1.1039    0.3881 O   0  0  0  0  0  0  0  0  0  0  0  0
    0.1201    1.0917   -0.5698 H   0  0  0  0  0  0  0  0  0  0  0  0
   -1.0352   -0.2521    0.9313 H   0  0  0  0  0  0  0  0  0  0  0  0
   -1.4974    1.4505    1.0730 H   0  0  0  0  0  0  0  0  0  0  0  0
   -0.9264    0.2012    3.3657 H   0  0  0  0  0  0  0  0  0  0  0  0
    1.4018    1.9271    2.4528 H   0  0  0  0  0  0  0  0  0  0  0  0
    1.0274    1.3859    4.1639 H   0  0  0  0  0  0  0  0  0  0  0  0
  1  3  1  0
  1  6  1  0
  1  8  1  0
  1  9  1  0
  2  3  2  0
  2 11  1  0
  2 12  1  0
  3 10  1  0
  4  5  2  0
  6  7  1  0
M  END
