OCC=C.O=O_0
     RDKit          3D

 12 10  0  0  0  0  0  0  0  0999 V2000
    0.1846   -0.2167    1.1775 C   0  0  0  0  0  0  0  0  0  0  0  0
    0.0009    1.7732    2.6042 C   0  0  0  0  0  0  0  0  0  0  0  0
    0.7320    1.0120    1.8162 C   0  0  0  0  0  0  0  0  0  0  0  0
   -1.5142    2.1015   -1.5487 O   0  0  0  0  0  0  0  0  0  0  0  0
   -0.8543    2.6720   -0.8287 O   0  0  0  0  0  0  0  0  0  0  0  0
   -1.1212   -0.0470    0.6707 O   0  0  0  0  0  0  0  0  0  0  0  0
   -1.1471    0.7420    0.0625 H   0  0  0  0  0  0  0  0  0  0  0  0
    0.8308   -0.5688    0.3615 H   0  0  0  0  0  0  0  0  0  0  0  0
    0.1362   -1.0313    1.9114 H   0  0  0  0  0  0  0  0  0  0  0  0
    1.7675    1.2629    1.6409 H   0  0  0  0  0  0  0  0  0  0  0  0
   -1.0283    1.5396    2.8035 H   0  0  0  0  0  0  0  0  0  0  0  0
    0.3997    2.6541    3.0717 H   0  0  0  0  0  0  0  0  0  0  0  0
  1  3  1  0
  1  6  1  0
  1  8  1  0
  1  9  1  0
  2  3  2  0
  2 11  1  0
  2 12  1  0
  3 10  1  0
  4  5  2  0
  6  7  1  0
M  END
