OCC=C.O=O_18
     RDKit          3D

 12 10  0  0  0  0  0  0  0  0999 V2000
   -0.0401   -0.7942    1.1935 C   0  0  0  0  0  0  0  0  0  0  0  0
    0.0129    1.6333    0.8330 C   0  0  0  0  0  0  0  0  0  0  0  0
   -0.6430    0.5665    1.2397 C   0  0  0  0  0  0  0  0  0  0  0  0
   -0.4371    4.9072    0.4958 O   0  0  0  0  0  0  0  0  0  0  0  0
   -1.4478    4.6775    0.9487 O   0  0  0  0  0  0  0  0  0  0  0  0
    1.3012   -0.8252    1.6326 O   0  0  0  0  0  0  0  0  0  0  0  0
    1.3690   -0.4278    2.5305 H   0  0  0  0  0  0  0  0  0  0  0  0
   -0.6190   -1.5126    1.7903 H   0  0  0  0  0  0  0  0  0  0  0  0
   -0.0442   -1.1707    0.1624 H   0  0  0  0  0  0  0  0  0  0  0  0
   -1.6576    0.6661    1.5955 H   0  0  0  0  0  0  0  0  0  0  0  0
    1.0189    1.5602    0.4639 H   0  0  0  0  0  0  0  0  0  0  0  0
   -0.4265    2.6133    0.8568 H   0  0  0  0  0  0  0  0  0  0  0  0
  1  3  1  0
  1  6  1  0
  1  8  1  0
  1  9  1  0
  2  3  2  0
  2 11  1  0
  2 12  1  0
  3 10  1  0
  4  5  2  0
  6  7  1  0
M  END
