OCC=C.O=O_5
     RDKit          3D

 12 10  0  0  0  0  0  0  0  0999 V2000
   -0.4411   -0.3091    1.2889 C   0  0  0  0  0  0  0  0  0  0  0  0
   -0.3895    1.9891    2.1621 C   0  0  0  0  0  0  0  0  0  0  0  0
   -0.1144    0.7107    2.3233 C   0  0  0  0  0  0  0  0  0  0  0  0
    1.0040    2.6390   -0.8315 O   0  0  0  0  0  0  0  0  0  0  0  0
   -0.0632    2.5177   -1.1862 O   0  0  0  0  0  0  0  0  0  0  0  0
    0.4039   -0.2574    0.1595 O   0  0  0  0  0  0  0  0  0  0  0  0
    0.4279    0.6670   -0.2110 H   0  0  0  0  0  0  0  0  0  0  0  0
   -0.3623   -1.3250    1.6982 H   0  0  0  0  0  0  0  0  0  0  0  0
   -1.4801   -0.1938    0.9519 H   0  0  0  0  0  0  0  0  0  0  0  0
    0.4157    0.3862    3.2058 H   0  0  0  0  0  0  0  0  0  0  0  0
   -0.8869    2.3466    1.2801 H   0  0  0  0  0  0  0  0  0  0  0  0
   -0.1273    2.7224    2.9015 H   0  0  0  0  0  0  0  0  0  0  0  0
  1  3  1  0
  1  6  1  0
  1  8  1  0
  1  9  1  0
  2  3  2  0
  2 11  1  0
  2 12  1  0
  3 10  1  0
  4  5  2  0
  6  7  1  0
M  END
