OCC=C.O=O_9
     RDKit          3D

 12 10  0  0  0  0  0  0  0  0999 V2000
   -0.1109   -0.0653    1.2865 C   0  0  0  0  0  0  0  0  0  0  0  0
    0.0017    1.6690    3.0347 C   0  0  0  0  0  0  0  0  0  0  0  0
    0.3567    1.2328    1.8422 C   0  0  0  0  0  0  0  0  0  0  0  0
   -1.3611    2.1569   -1.3326 O   0  0  0  0  0  0  0  0  0  0  0  0
   -0.4235    2.1664   -1.9652 O   0  0  0  0  0  0  0  0  0  0  0  0
    0.1880   -0.2401   -0.0836 O   0  0  0  0  0  0  0  0  0  0  0  0
   -0.1622    0.5317   -0.6075 H   0  0  0  0  0  0  0  0  0  0  0  0
    0.3589   -0.8977    1.8258 H   0  0  0  0  0  0  0  0  0  0  0  0
   -1.1950   -0.1755    1.4230 H   0  0  0  0  0  0  0  0  0  0  0  0
    1.0348    1.8115    1.2354 H   0  0  0  0  0  0  0  0  0  0  0  0
   -0.6596    1.1001    3.6607 H   0  0  0  0  0  0  0  0  0  0  0  0
    0.3588    2.6038    3.4233 H   0  0  0  0  0  0  0  0  0  0  0  0
  1  3  1  0
  1  6  1  0
  1  8  1  0
  1  9  1  0
  2  3  2  0
  2 11  1  0
  2 12  1  0
  3 10  1  0
  4  5  2  0
  6  7  1  0
M  END
