OCC=C.O=O_6
     RDKit          3D

 12 10  0  0  0  0  0  0  0  0999 V2000
    0.0956   -0.3187    1.2863 C   0  0  0  0  0  0  0  0  0  0  0  0
   -0.0217    1.9709    2.1779 C   0  0  0  0  0  0  0  0  0  0  0  0
   -0.1394    0.6735    2.3719 C   0  0  0  0  0  0  0  0  0  0  0  0
   -0.9680    2.7065   -1.0387 O   0  0  0  0  0  0  0  0  0  0  0  0
    0.1453    2.5286   -1.1307 O   0  0  0  0  0  0  0  0  0  0  0  0
   -0.7631   -0.1625    0.1769 O   0  0  0  0  0  0  0  0  0  0  0  0
   -0.6638    0.7477   -0.2159 H   0  0  0  0  0  0  0  0  0  0  0  0
    1.1349   -0.2630    0.9354 H   0  0  0  0  0  0  0  0  0  0  0  0
   -0.0504   -1.3434    1.6532 H   0  0  0  0  0  0  0  0  0  0  0  0
   -0.4308    0.3049    3.3443 H   0  0  0  0  0  0  0  0  0  0  0  0
    0.2487    2.3684    1.2181 H   0  0  0  0  0  0  0  0  0  0  0  0
   -0.2007    2.6804    2.9640 H   0  0  0  0  0  0  0  0  0  0  0  0
  1  3  1  0
  1  6  1  0
  1  8  1  0
  1  9  1  0
  2  3  2  0
  2 11  1  0
  2 12  1  0
  3 10  1  0
  4  5  2  0
  6  7  1  0
M  END
