OCC=C.O=O_14
     RDKit          3D

 12 10  0  0  0  0  0  0  0  0999 V2000
   -0.5108   -0.3782    1.2502 C   0  0  0  0  0  0  0  0  0  0  0  0
   -0.1710    1.9334    2.0021 C   0  0  0  0  0  0  0  0  0  0  0  0
   -0.3523    0.6642    2.3019 C   0  0  0  0  0  0  0  0  0  0  0  0
    0.6360    3.0242   -1.0948 O   0  0  0  0  0  0  0  0  0  0  0  0
   -0.3969    3.4648   -0.9582 O   0  0  0  0  0  0  0  0  0  0  0  0
    0.3831   -0.2206    0.1689 O   0  0  0  0  0  0  0  0  0  0  0  0
    1.3082   -0.1787    0.5023 H   0  0  0  0  0  0  0  0  0  0  0  0
   -0.3850   -1.3892    1.6620 H   0  0  0  0  0  0  0  0  0  0  0  0
   -1.5244   -0.3358    0.8310 H   0  0  0  0  0  0  0  0  0  0  0  0
   -0.4176    0.3630    3.3368 H   0  0  0  0  0  0  0  0  0  0  0  0
   -0.1145    2.2594    0.9799 H   0  0  0  0  0  0  0  0  0  0  0  0
   -0.0683    2.6870    2.7605 H   0  0  0  0  0  0  0  0  0  0  0  0
  1  3  1  0
  1  6  1  0
  1  8  1  0
  1  9  1  0
  2  3  2  0
  2 11  1  0
  2 12  1  0
  3 10  1  0
  4  5  2  0
  6  7  1  0
M  END
