OCC=C.O=O_4
     RDKit          3D

 12 10  0  0  0  0  0  0  0  0999 V2000
   -0.2518   -0.2587    1.2549 C   0  0  0  0  0  0  0  0  0  0  0  0
    0.3801    1.7620    2.4989 C   0  0  0  0  0  0  0  0  0  0  0  0
   -0.5481    0.8967    2.1465 C   0  0  0  0  0  0  0  0  0  0  0  0
   -1.0749    2.3265   -1.1783 O   0  0  0  0  0  0  0  0  0  0  0  0
   -0.0272    2.7202   -1.3413 O   0  0  0  0  0  0  0  0  0  0  0  0
    0.5954    0.0726    0.1764 O   0  0  0  0  0  0  0  0  0  0  0  0
    0.2294    0.8632   -0.3073 H   0  0  0  0  0  0  0  0  0  0  0  0
    0.2522   -1.0517    1.8222 H   0  0  0  0  0  0  0  0  0  0  0  0
   -1.1725   -0.7008    0.8493 H   0  0  0  0  0  0  0  0  0  0  0  0
   -1.5517    1.0034    2.5302 H   0  0  0  0  0  0  0  0  0  0  0  0
    1.3888    1.6711    2.1410 H   0  0  0  0  0  0  0  0  0  0  0  0
    0.1670    2.5890    3.1502 H   0  0  0  0  0  0  0  0  0  0  0  0
  1  3  1  0
  1  6  1  0
  1  8  1  0
  1  9  1  0
  2  3  2  0
  2 11  1  0
  2 12  1  0
  3 10  1  0
  4  5  2  0
  6  7  1  0
M  END
