OCC=C.O=O_16
     RDKit          3D

 12 10  0  0  0  0  0  0  0  0999 V2000
    0.3711    0.0702    0.6069 C   0  0  0  0  0  0  0  0  0  0  0  0
    0.6252    1.7118    2.4146 C   0  0  0  0  0  0  0  0  0  0  0  0
   -0.0058    1.3166    1.3286 C   0  0  0  0  0  0  0  0  0  0  0  0
   -2.4221    3.1347   -0.0780 O   0  0  0  0  0  0  0  0  0  0  0  0
   -2.5057    2.1635   -0.6517 O   0  0  0  0  0  0  0  0  0  0  0  0
    0.6105   -1.0222    1.4683 O   0  0  0  0  0  0  0  0  0  0  0  0
   -0.1668   -1.1620    2.0558 H   0  0  0  0  0  0  0  0  0  0  0  0
   -0.3977   -0.2224   -0.1218 H   0  0  0  0  0  0  0  0  0  0  0  0
    1.2950    0.2324    0.0369 H   0  0  0  0  0  0  0  0  0  0  0  0
   -0.8075    1.9179    0.9262 H   0  0  0  0  0  0  0  0  0  0  0  0
    1.4324    1.1366    2.8284 H   0  0  0  0  0  0  0  0  0  0  0  0
    0.3579    2.6164    2.9283 H   0  0  0  0  0  0  0  0  0  0  0  0
  1  3  1  0
  1  6  1  0
  1  8  1  0
  1  9  1  0
  2  3  2  0
  2 11  1  0
  2 12  1  0
  3 10  1  0
  4  5  2  0
  6  7  1  0
M  END
