O=COC=O.C_4
     RDKit          3D

 12 10  0  0  0  0  0  0  0  0999 V2000
   -1.4639    3.1132    2.8782 C   0  0  0  0  0  0  0  0  0  0  0  0
    0.2680   -1.6928   -0.1667 C   0  0  0  0  0  0  0  0  0  0  0  0
   -0.8515    1.0332    2.3139 C   0  0  0  0  0  0  0  0  0  0  0  0
   -1.7581    4.0789    3.5267 O   0  0  0  0  0  0  0  0  0  0  0  0
   -1.1226    1.8871    3.3194 O   0  0  0  0  0  0  0  0  0  0  0  0
   -0.8908    1.2737    1.1398 O   0  0  0  0  0  0  0  0  0  0  0  0
    0.2746   -1.9387    0.8938 H   0  0  0  0  0  0  0  0  0  0  0  0
   -0.4080   -2.3658   -0.6909 H   0  0  0  0  0  0  0  0  0  0  0  0
   -1.4747    3.2466    1.7959 H   0  0  0  0  0  0  0  0  0  0  0  0
   -0.5693    0.0247    2.6053 H   0  0  0  0  0  0  0  0  0  0  0  0
   -0.0675   -0.6662   -0.3002 H   0  0  0  0  0  0  0  0  0  0  0  0
    1.2729   -1.8009   -0.5703 H   0  0  0  0  0  0  0  0  0  0  0  0
  1  4  2  0
  1  5  1  0
  1  9  1  0
  2  7  1  0
  2  8  1  0
  2 11  1  0
  2 12  1  0
  3  5  1  0
  3  6  2  0
  3 10  1  0
M  END
