O=COC=O.C_2
     RDKit          3D

 12 10  0  0  0  0  0  0  0  0999 V2000
   -0.6149    2.2366    1.8293 C   0  0  0  0  0  0  0  0  0  0  0  0
    0.0324   -0.6599   -0.0361 C   0  0  0  0  0  0  0  0  0  0  0  0
   -1.2130    0.4768    3.0799 C   0  0  0  0  0  0  0  0  0  0  0  0
    0.0299    3.1259    1.3465 O   0  0  0  0  0  0  0  0  0  0  0  0
   -0.2358    1.3501    2.7699 O   0  0  0  0  0  0  0  0  0  0  0  0
   -2.3160    0.4396    2.6109 O   0  0  0  0  0  0  0  0  0  0  0  0
    0.7828    0.0870    0.2168 H   0  0  0  0  0  0  0  0  0  0  0  0
    0.3691   -1.2355   -0.8961 H   0  0  0  0  0  0  0  0  0  0  0  0
   -1.6350    2.1336    1.4578 H   0  0  0  0  0  0  0  0  0  0  0  0
   -0.9681   -0.2695    3.8311 H   0  0  0  0  0  0  0  0  0  0  0  0
   -0.1158   -1.3269    0.8112 H   0  0  0  0  0  0  0  0  0  0  0  0
   -0.9066   -0.1645   -0.2762 H   0  0  0  0  0  0  0  0  0  0  0  0
  1  4  2  0
  1  5  1  0
  1  9  1  0
  2  7  1  0
  2  8  1  0
  2 11  1  0
  2 12  1  0
  3  5  1  0
  3  6  2  0
  3 10  1  0
M  END
