O=COC=O.C_3
     RDKit          3D

 12 10  0  0  0  0  0  0  0  0999 V2000
   -1.3370    2.1973    1.7024 C   0  0  0  0  0  0  0  0  0  0  0  0
    0.1502   -0.6524    0.0001 C   0  0  0  0  0  0  0  0  0  0  0  0
   -0.9837    0.4522    3.0621 C   0  0  0  0  0  0  0  0  0  0  0  0
   -0.2119    2.5954    1.8187 O   0  0  0  0  0  0  0  0  0  0  0  0
   -1.8694    1.1069    2.2867 O   0  0  0  0  0  0  0  0  0  0  0  0
   -1.1561   -0.5483    3.7016 O   0  0  0  0  0  0  0  0  0  0  0  0
    1.0024   -0.4551    0.6479 H   0  0  0  0  0  0  0  0  0  0  0  0
   -0.6171   -1.1828    0.5609 H   0  0  0  0  0  0  0  0  0  0  0  0
   -2.0019    2.7698    1.0608 H   0  0  0  0  0  0  0  0  0  0  0  0
    0.0175    0.8815    3.1124 H   0  0  0  0  0  0  0  0  0  0  0  0
   -0.2533    0.2901   -0.3655 H   0  0  0  0  0  0  0  0  0  0  0  0
    0.4693   -1.2617   -0.8432 H   0  0  0  0  0  0  0  0  0  0  0  0
  1  4  2  0
  1  5  1  0
  1  9  1  0
  2  7  1  0
  2  8  1  0
  2 11  1  0
  2 12  1  0
  3  5  1  0
  3  6  2  0
  3 10  1  0
M  END
