O=COC=O.C
     RDKit          3D

 12 10  0  0  0  0  0  0  0  0999 V2000
   -0.9165    2.3718    1.6848 C   0  0  0  0  0  0  0  0  0  0  0  0
    0.0451   -0.7247   -0.0307 C   0  0  0  0  0  0  0  0  0  0  0  0
   -1.0456    0.4512    3.1705 C   0  0  0  0  0  0  0  0  0  0  0  0
   -0.3366    3.4356    1.3466 O   0  0  0  0  0  0  0  0  0  0  0  0
   -0.4355    1.6358    2.7650 O   0  0  0  0  0  0  0  0  0  0  0  0
   -0.5807   -0.1871    4.1496 O   0  0  0  0  0  0  0  0  0  0  0  0
    0.1460   -1.4023    0.8419 H   0  0  0  0  0  0  0  0  0  0  0  0
    0.3275   -1.2676   -0.9559 H   0  0  0  0  0  0  0  0  0  0  0  0
   -1.7846    2.0390    1.1291 H   0  0  0  0  0  0  0  0  0  0  0  0
   -1.9163    0.0695    2.6513 H   0  0  0  0  0  0  0  0  0  0  0  0
   -1.0062   -0.3794   -0.1102 H   0  0  0  0  0  0  0  0  0  0  0  0
    0.7125    0.1513    0.1030 H   0  0  0  0  0  0  0  0  0  0  0  0
  1  4  2  0
  1  5  1  0
  1  9  1  0
  2  7  1  0
  2  8  1  0
  2 11  1  0
  2 12  1  0
  3  5  1  0
  3  6  2  0
  3 10  1  0
M  END
