O=COCC=O.[H][H]_9
     RDKit          3D

 12 10  0  0  0  0  0  0  0  0999 V2000
    0.8365    0.1629    0.4144 C   0  0  0  0  0  0  0  0  0  0  0  0
   -0.2556    1.5657    1.8277 C   0  0  0  0  0  0  0  0  0  0  0  0
   -0.3965    0.5713    2.9308 C   0  0  0  0  0  0  0  0  0  0  0  0
    0.8902    1.3594    1.0319 O   0  0  0  0  0  0  0  0  0  0  0  0
   -0.0205   -0.6736    0.5237 O   0  0  0  0  0  0  0  0  0  0  0  0
   -0.6984    0.8496    4.0511 O   0  0  0  0  0  0  0  0  0  0  0  0
   -0.0742    2.5204   -1.3814 H   0  0  0  0  0  0  0  0  0  0  0  0
    0.5626    2.9088   -1.1636 H   0  0  0  0  0  0  0  0  0  0  0  0
    1.6684   -0.0687   -0.2387 H   0  0  0  0  0  0  0  0  0  0  0  0
   -0.2645   -0.4825    2.7048 H   0  0  0  0  0  0  0  0  0  0  0  0
   -0.1641    2.5755    2.2520 H   0  0  0  0  0  0  0  0  0  0  0  0
   -1.1320    1.5443    1.1639 H   0  0  0  0  0  0  0  0  0  0  0  0
  1  4  1  0
  1  5  2  0
  1  9  1  0
  2  3  1  0
  2  4  1  0
  2 11  1  0
  2 12  1  0
  3  6  2  0
  3 10  1  0
  7  8  1  0
M  END
