O=COCC=O.[H][H]_4
     RDKit          3D

 12 10  0  0  0  0  0  0  0  0999 V2000
    1.1290   -0.1136    0.4905 C   0  0  0  0  0  0  0  0  0  0  0  0
    0.6295    1.3992    2.1109 C   0  0  0  0  0  0  0  0  0  0  0  0
   -0.8086    1.0167    2.2161 C   0  0  0  0  0  0  0  0  0  0  0  0
    1.4653    0.3338    1.7163 O   0  0  0  0  0  0  0  0  0  0  0  0
    0.2229    0.2695   -0.2008 O   0  0  0  0  0  0  0  0  0  0  0  0
   -1.5273    1.3463    3.1097 O   0  0  0  0  0  0  0  0  0  0  0  0
   -1.1808    2.2801   -0.9353 H   0  0  0  0  0  0  0  0  0  0  0  0
   -1.2217    2.8250   -0.3833 H   0  0  0  0  0  0  0  0  0  0  0  0
    1.7391   -0.9177    0.0986 H   0  0  0  0  0  0  0  0  0  0  0  0
   -1.2572    0.4418    1.4116 H   0  0  0  0  0  0  0  0  0  0  0  0
    0.9932    1.7346    3.0924 H   0  0  0  0  0  0  0  0  0  0  0  0
    0.7686    2.2175    1.3900 H   0  0  0  0  0  0  0  0  0  0  0  0
  1  4  1  0
  1  5  2  0
  1  9  1  0
  2  3  1  0
  2  4  1  0
  2 11  1  0
  2 12  1  0
  3  6  2  0
  3 10  1  0
  7  8  1  0
M  END
