O=COCC=O.[H][H]_2
     RDKit          3D

 12 10  0  0  0  0  0  0  0  0999 V2000
    1.3414    0.5460    0.3368 C   0  0  0  0  0  0  0  0  0  0  0  0
   -0.2419    0.8394    1.9022 C   0  0  0  0  0  0  0  0  0  0  0  0
   -0.5650    1.3863    3.2477 C   0  0  0  0  0  0  0  0  0  0  0  0
    1.0601    1.1799    1.4903 O   0  0  0  0  0  0  0  0  0  0  0  0
    0.6210   -0.2069   -0.2642 O   0  0  0  0  0  0  0  0  0  0  0  0
   -1.5981    1.1848    3.8097 O   0  0  0  0  0  0  0  0  0  0  0  0
   -0.4896    1.7786   -1.7832 H   0  0  0  0  0  0  0  0  0  0  0  0
   -0.4012    2.4162   -1.3481 H   0  0  0  0  0  0  0  0  0  0  0  0
    2.3207    0.7358   -0.0849 H   0  0  0  0  0  0  0  0  0  0  0  0
    0.1630    2.0064    3.7603 H   0  0  0  0  0  0  0  0  0  0  0  0
   -0.9424    1.2246    1.1471 H   0  0  0  0  0  0  0  0  0  0  0  0
   -0.3162   -0.2581    1.9029 H   0  0  0  0  0  0  0  0  0  0  0  0
  1  4  1  0
  1  5  2  0
  1  9  1  0
  2  3  1  0
  2  4  1  0
  2 11  1  0
  2 12  1  0
  3  6  2  0
  3 10  1  0
  7  8  1  0
M  END
