O=COCC=O.[H][H]
     RDKit          3D

 12 10  0  0  0  0  0  0  0  0999 V2000
    1.4057   -0.0799    0.1772 C   0  0  0  0  0  0  0  0  0  0  0  0
    0.3199    1.1665    1.9927 C   0  0  0  0  0  0  0  0  0  0  0  0
   -1.0480    1.3470    2.5676 C   0  0  0  0  0  0  0  0  0  0  0  0
    0.2654    0.2535    0.9042 O   0  0  0  0  0  0  0  0  0  0  0  0
    1.3211   -0.8900   -0.7813 O   0  0  0  0  0  0  0  0  0  0  0  0
   -1.2181    2.0938    3.5175 O   0  0  0  0  0  0  0  0  0  0  0  0
   -1.4481    2.3108   -0.5165 H   0  0  0  0  0  0  0  0  0  0  0  0
   -0.8153    2.5412   -0.7349 H   0  0  0  0  0  0  0  0  0  0  0  0
    2.3664    0.3522    0.4283 H   0  0  0  0  0  0  0  0  0  0  0  0
   -1.8965    0.8180    2.1452 H   0  0  0  0  0  0  0  0  0  0  0  0
    0.9992    0.7710    2.7785 H   0  0  0  0  0  0  0  0  0  0  0  0
    0.7002    2.1490    1.6382 H   0  0  0  0  0  0  0  0  0  0  0  0
  1  4  1  0
  1  5  2  0
  1  9  1  0
  2  3  1  0
  2  4  1  0
  2 11  1  0
  2 12  1  0
  3  6  2  0
  3 10  1  0
  7  8  1  0
M  END
