O=COCC=O.[H][H]_18
     RDKit          3D

 12 10  0  0  0  0  0  0  0  0999 V2000
    1.7300    0.0121    0.8591 C   0  0  0  0  0  0  0  0  0  0  0  0
   -0.4710    0.3109    1.5065 C   0  0  0  0  0  0  0  0  0  0  0  0
   -0.1468    1.6377    2.0980 C   0  0  0  0  0  0  0  0  0  0  0  0
    0.6469   -0.5569    1.4404 O   0  0  0  0  0  0  0  0  0  0  0  0
    2.7683   -0.5130    0.5505 O   0  0  0  0  0  0  0  0  0  0  0  0
    0.4731    2.4567    1.4931 O   0  0  0  0  0  0  0  0  0  0  0  0
   -1.9229    2.8975   -0.0911 H   0  0  0  0  0  0  0  0  0  0  0  0
   -1.3500    3.4219   -0.1091 H   0  0  0  0  0  0  0  0  0  0  0  0
    1.6903    1.0803    0.6723 H   0  0  0  0  0  0  0  0  0  0  0  0
   -0.3803    1.8669    3.1323 H   0  0  0  0  0  0  0  0  0  0  0  0
   -0.8431    0.4349    0.4809 H   0  0  0  0  0  0  0  0  0  0  0  0
   -1.2424   -0.2158    2.0839 H   0  0  0  0  0  0  0  0  0  0  0  0
  1  4  1  0
  1  5  2  0
  1  9  1  0
  2  3  1  0
  2  4  1  0
  2 11  1  0
  2 12  1  0
  3  6  2  0
  3 10  1  0
  7  8  1  0
M  END
