O=COCC=O.[H][H]_11
     RDKit          3D

 12 10  0  0  0  0  0  0  0  0999 V2000
    1.3060    0.6840    0.3163 C   0  0  0  0  0  0  0  0  0  0  0  0
   -0.1129    0.4030    2.1226 C   0  0  0  0  0  0  0  0  0  0  0  0
   -0.2286    1.8769    2.2952 C   0  0  0  0  0  0  0  0  0  0  0  0
    0.2285    0.0220    0.8014 O   0  0  0  0  0  0  0  0  0  0  0  0
    1.8951    0.4867   -0.7148 O   0  0  0  0  0  0  0  0  0  0  0  0
    0.7339    2.5794    2.3251 O   0  0  0  0  0  0  0  0  0  0  0  0
   -1.2833    1.3218   -0.9710 H   0  0  0  0  0  0  0  0  0  0  0  0
   -1.6841    1.6706   -0.4041 H   0  0  0  0  0  0  0  0  0  0  0  0
    1.6765    1.5234    0.8955 H   0  0  0  0  0  0  0  0  0  0  0  0
   -1.1946    2.3705    2.3031 H   0  0  0  0  0  0  0  0  0  0  0  0
   -1.0530   -0.1110    2.3630 H   0  0  0  0  0  0  0  0  0  0  0  0
    0.6682    0.0058    2.7843 H   0  0  0  0  0  0  0  0  0  0  0  0
  1  4  1  0
  1  5  2  0
  1  9  1  0
  2  3  1  0
  2  4  1  0
  2 11  1  0
  2 12  1  0
  3  6  2  0
  3 10  1  0
  7  8  1  0
M  END
