O=COCC=O.[H][H]_12
     RDKit          3D

 12 10  0  0  0  0  0  0  0  0999 V2000
    0.7666    0.1570    0.4580 C   0  0  0  0  0  0  0  0  0  0  0  0
   -0.6269    1.4719    1.7551 C   0  0  0  0  0  0  0  0  0  0  0  0
   -0.1821    0.7740    2.9922 C   0  0  0  0  0  0  0  0  0  0  0  0
   -0.4742    0.6847    0.5872 O   0  0  0  0  0  0  0  0  0  0  0  0
    1.2261   -0.4351   -0.4839 O   0  0  0  0  0  0  0  0  0  0  0  0
    0.9733    0.6104    3.2356 O   0  0  0  0  0  0  0  0  0  0  0  0
    0.2103    2.1240   -1.6300 H   0  0  0  0  0  0  0  0  0  0  0  0
    0.2456    2.7584   -1.1828 H   0  0  0  0  0  0  0  0  0  0  0  0
    1.4329    0.2387    1.3105 H   0  0  0  0  0  0  0  0  0  0  0  0
   -0.8943    0.3063    3.6637 H   0  0  0  0  0  0  0  0  0  0  0  0
   -0.0388    2.3872    1.6063 H   0  0  0  0  0  0  0  0  0  0  0  0
   -1.6865    1.7557    1.8048 H   0  0  0  0  0  0  0  0  0  0  0  0
  1  4  1  0
  1  5  2  0
  1  9  1  0
  2  3  1  0
  2  4  1  0
  2 11  1  0
  2 12  1  0
  3  6  2  0
  3 10  1  0
  7  8  1  0
M  END
