O=COCC=O.[H][H]_14
     RDKit          3D

 12 10  0  0  0  0  0  0  0  0999 V2000
    1.4111    0.3212    0.5185 C   0  0  0  0  0  0  0  0  0  0  0  0
   -0.3991    0.3126    1.9602 C   0  0  0  0  0  0  0  0  0  0  0  0
   -0.0795    1.6938    2.4138 C   0  0  0  0  0  0  0  0  0  0  0  0
    0.7268   -0.3815    1.4525 O   0  0  0  0  0  0  0  0  0  0  0  0
    2.3213   -0.0549   -0.1738 O   0  0  0  0  0  0  0  0  0  0  0  0
    0.1322    2.5734    1.6378 O   0  0  0  0  0  0  0  0  0  0  0  0
   -1.3220    2.1630   -0.8458 H   0  0  0  0  0  0  0  0  0  0  0  0
   -1.1003    2.8765   -0.6328 H   0  0  0  0  0  0  0  0  0  0  0  0
    1.1462    1.3653    0.3887 H   0  0  0  0  0  0  0  0  0  0  0  0
    0.0666    1.9230    3.4640 H   0  0  0  0  0  0  0  0  0  0  0  0
   -1.1480    0.3422    1.1577 H   0  0  0  0  0  0  0  0  0  0  0  0
   -0.8033   -0.3014    2.7759 H   0  0  0  0  0  0  0  0  0  0  0  0
  1  4  1  0
  1  5  2  0
  1  9  1  0
  2  3  1  0
  2  4  1  0
  2 11  1  0
  2 12  1  0
  3  6  2  0
  3 10  1  0
  7  8  1  0
M  END
