O=COCC=O.[H][H]_15
     RDKit          3D

 12 10  0  0  0  0  0  0  0  0999 V2000
    0.4086    0.1370    0.3136 C   0  0  0  0  0  0  0  0  0  0  0  0
    0.4010    1.5709    2.1297 C   0  0  0  0  0  0  0  0  0  0  0  0
   -0.5706    0.7009    2.8469 C   0  0  0  0  0  0  0  0  0  0  0  0
    1.1654    0.8725    1.1626 O   0  0  0  0  0  0  0  0  0  0  0  0
    0.7612   -0.4476   -0.6779 O   0  0  0  0  0  0  0  0  0  0  0  0
   -1.5661    0.3101    2.3203 O   0  0  0  0  0  0  0  0  0  0  0  0
    0.4018    2.2765   -1.6522 H   0  0  0  0  0  0  0  0  0  0  0  0
   -0.0367    2.6658   -1.1425 H   0  0  0  0  0  0  0  0  0  0  0  0
   -0.6425    0.0214    0.5570 H   0  0  0  0  0  0  0  0  0  0  0  0
   -0.3580    0.3149    3.8382 H   0  0  0  0  0  0  0  0  0  0  0  0
    1.1182    2.0364    2.8187 H   0  0  0  0  0  0  0  0  0  0  0  0
   -0.1302    2.3742    1.6022 H   0  0  0  0  0  0  0  0  0  0  0  0
  1  4  1  0
  1  5  2  0
  1  9  1  0
  2  3  1  0
  2  4  1  0
  2 11  1  0
  2 12  1  0
  3  6  2  0
  3 10  1  0
  7  8  1  0
M  END
