O=COCC=O.[H][H]_3
     RDKit          3D

 12 10  0  0  0  0  0  0  0  0999 V2000
    1.3707   -0.0273    0.4539 C   0  0  0  0  0  0  0  0  0  0  0  0
   -0.1256    1.0427    1.7424 C   0  0  0  0  0  0  0  0  0  0  0  0
   -0.8209    1.0864    3.0571 C   0  0  0  0  0  0  0  0  0  0  0  0
    0.8623    0.0413    1.6982 O   0  0  0  0  0  0  0  0  0  0  0  0
    1.0464    0.6390   -0.4936 O   0  0  0  0  0  0  0  0  0  0  0  0
   -1.7168    1.8347    3.3040 O   0  0  0  0  0  0  0  0  0  0  0  0
   -0.6361    3.0421   -0.8644 H   0  0  0  0  0  0  0  0  0  0  0  0
   -0.1897    2.6812   -1.3875 H   0  0  0  0  0  0  0  0  0  0  0  0
    2.1493   -0.7636    0.2970 H   0  0  0  0  0  0  0  0  0  0  0  0
   -0.5098    0.4114    3.8477 H   0  0  0  0  0  0  0  0  0  0  0  0
    0.3643    2.0039    1.5294 H   0  0  0  0  0  0  0  0  0  0  0  0
   -0.8423    0.8413    0.9326 H   0  0  0  0  0  0  0  0  0  0  0  0
  1  4  1  0
  1  5  2  0
  1  9  1  0
  2  3  1  0
  2  4  1  0
  2 11  1  0
  2 12  1  0
  3  6  2  0
  3 10  1  0
  7  8  1  0
M  END
