O=COCC=O.[H][H]_1
     RDKit          3D

 12 10  0  0  0  0  0  0  0  0999 V2000
    1.0192    0.1136    0.2983 C   0  0  0  0  0  0  0  0  0  0  0  0
    0.6153    1.3719    2.1457 C   0  0  0  0  0  0  0  0  0  0  0  0
   -0.8506    1.0966    2.1797 C   0  0  0  0  0  0  0  0  0  0  0  0
    1.1615    1.3365    0.8459 O   0  0  0  0  0  0  0  0  0  0  0  0
    0.4723   -0.8413    0.7833 O   0  0  0  0  0  0  0  0  0  0  0  0
   -1.6380    1.7276    2.8164 O   0  0  0  0  0  0  0  0  0  0  0  0
   -1.0798    2.0522   -0.7786 H   0  0  0  0  0  0  0  0  0  0  0  0
   -0.9224    2.7158   -0.4063 H   0  0  0  0  0  0  0  0  0  0  0  0
    1.4329   -0.0094   -0.6947 H   0  0  0  0  0  0  0  0  0  0  0  0
   -1.2351    0.2438    1.6286 H   0  0  0  0  0  0  0  0  0  0  0  0
    1.1674    0.6459    2.7597 H   0  0  0  0  0  0  0  0  0  0  0  0
    0.8093    2.3799    2.5388 H   0  0  0  0  0  0  0  0  0  0  0  0
  1  4  1  0
  1  5  2  0
  1  9  1  0
  2  3  1  0
  2  4  1  0
  2 11  1  0
  2 12  1  0
  3  6  2  0
  3 10  1  0
  7  8  1  0
M  END
