O=COCC=O.[H][H]_7
     RDKit          3D

 12 10  0  0  0  0  0  0  0  0999 V2000
    0.8452    0.1872    0.4476 C   0  0  0  0  0  0  0  0  0  0  0  0
    0.2808    1.6489    2.0932 C   0  0  0  0  0  0  0  0  0  0  0  0
   -0.6347    0.7080    2.8017 C   0  0  0  0  0  0  0  0  0  0  0  0
    1.3287    1.0009    1.4067 O   0  0  0  0  0  0  0  0  0  0  0  0
   -0.3095   -0.0333    0.1944 O   0  0  0  0  0  0  0  0  0  0  0  0
   -1.0432    0.8754    3.9102 O   0  0  0  0  0  0  0  0  0  0  0  0
   -0.0341    2.4526   -1.4210 H   0  0  0  0  0  0  0  0  0  0  0  0
   -0.5521    1.9111   -1.6258 H   0  0  0  0  0  0  0  0  0  0  0  0
    1.5859   -0.3325   -0.1471 H   0  0  0  0  0  0  0  0  0  0  0  0
   -0.9994   -0.1659    2.2705 H   0  0  0  0  0  0  0  0  0  0  0  0
   -0.2697    2.2597    1.3633 H   0  0  0  0  0  0  0  0  0  0  0  0
    0.7540    2.3209    2.8230 H   0  0  0  0  0  0  0  0  0  0  0  0
  1  4  1  0
  1  5  2  0
  1  9  1  0
  2  3  1  0
  2  4  1  0
  2 11  1  0
  2 12  1  0
  3  6  2  0
  3 10  1  0
  7  8  1  0
M  END
