O=COCC=O.[H][H]_10
     RDKit          3D

 12 10  0  0  0  0  0  0  0  0999 V2000
    0.6936    0.1247    0.4140 C   0  0  0  0  0  0  0  0  0  0  0  0
   -0.6759    1.3232    1.7735 C   0  0  0  0  0  0  0  0  0  0  0  0
   -0.0303    0.8813    3.0437 C   0  0  0  0  0  0  0  0  0  0  0  0
   -0.5912    0.3667    0.7405 O   0  0  0  0  0  0  0  0  0  0  0  0
    1.6749    0.5952    0.9255 O   0  0  0  0  0  0  0  0  0  0  0  0
   -0.5113    1.0235    4.1264 O   0  0  0  0  0  0  0  0  0  0  0  0
    0.6580    2.5113   -1.4183 H   0  0  0  0  0  0  0  0  0  0  0  0
   -0.1090    2.3918   -1.4522 H   0  0  0  0  0  0  0  0  0  0  0  0
    0.8505   -0.5834   -0.3899 H   0  0  0  0  0  0  0  0  0  0  0  0
    0.9620    0.4427    3.0008 H   0  0  0  0  0  0  0  0  0  0  0  0
   -0.2230    2.2548    1.4050 H   0  0  0  0  0  0  0  0  0  0  0  0
   -1.7465    1.5012    1.9475 H   0  0  0  0  0  0  0  0  0  0  0  0
  1  4  1  0
  1  5  2  0
  1  9  1  0
  2  3  1  0
  2  4  1  0
  2 11  1  0
  2 12  1  0
  3  6  2  0
  3 10  1  0
  7  8  1  0
M  END
