O=COCC=O.[H][H]_16
     RDKit          3D

 12 10  0  0  0  0  0  0  0  0999 V2000
    1.1215   -0.3109    0.4837 C   0  0  0  0  0  0  0  0  0  0  0  0
    0.6512    1.3132    2.0631 C   0  0  0  0  0  0  0  0  0  0  0  0
   -0.7946    0.9605    2.0374 C   0  0  0  0  0  0  0  0  0  0  0  0
    1.4915    0.2456    1.6619 O   0  0  0  0  0  0  0  0  0  0  0  0
    1.7109   -1.1364   -0.1647 O   0  0  0  0  0  0  0  0  0  0  0  0
   -1.3929    0.8493    1.0125 O   0  0  0  0  0  0  0  0  0  0  0  0
   -1.5267    2.9979   -0.3591 H   0  0  0  0  0  0  0  0  0  0  0  0
   -0.9718    3.4682   -0.0865 H   0  0  0  0  0  0  0  0  0  0  0  0
    0.1613   -0.0151    0.0740 H   0  0  0  0  0  0  0  0  0  0  0  0
   -1.3279    0.6989    2.9452 H   0  0  0  0  0  0  0  0  0  0  0  0
    0.9811    1.6105    3.0675 H   0  0  0  0  0  0  0  0  0  0  0  0
    0.8484    2.1514    1.3817 H   0  0  0  0  0  0  0  0  0  0  0  0
  1  4  1  0
  1  5  2  0
  1  9  1  0
  2  3  1  0
  2  4  1  0
  2 11  1  0
  2 12  1  0
  3  6  2  0
  3 10  1  0
  7  8  1  0
M  END
