O=COCC=O.[H][H]_8
     RDKit          3D

 12 10  0  0  0  0  0  0  0  0999 V2000
    0.9258    0.0673    0.4454 C   0  0  0  0  0  0  0  0  0  0  0  0
    0.4517    1.4925    2.1518 C   0  0  0  0  0  0  0  0  0  0  0  0
   -0.7723    0.7644    2.5956 C   0  0  0  0  0  0  0  0  0  0  0  0
    1.4170    0.6557    1.5538 O   0  0  0  0  0  0  0  0  0  0  0  0
   -0.1884    0.1625    0.0032 O   0  0  0  0  0  0  0  0  0  0  0  0
   -1.3195    0.9448    3.6405 O   0  0  0  0  0  0  0  0  0  0  0  0
   -0.3226    2.8173   -1.1720 H   0  0  0  0  0  0  0  0  0  0  0  0
   -0.7561    2.2051   -1.3748 H   0  0  0  0  0  0  0  0  0  0  0  0
    1.6135   -0.5735   -0.0919 H   0  0  0  0  0  0  0  0  0  0  0  0
   -1.2352    0.0567    1.9147 H   0  0  0  0  0  0  0  0  0  0  0  0
    0.9376    1.9581    3.0208 H   0  0  0  0  0  0  0  0  0  0  0  0
    0.2003    2.2822    1.4295 H   0  0  0  0  0  0  0  0  0  0  0  0
  1  4  1  0
  1  5  2  0
  1  9  1  0
  2  3  1  0
  2  4  1  0
  2 11  1  0
  2 12  1  0
  3  6  2  0
  3 10  1  0
  7  8  1  0
M  END
