O=COCC=O.[H][H]_17
     RDKit          3D

 12 10  0  0  0  0  0  0  0  0999 V2000
    1.7604   -0.0027    0.9138 C   0  0  0  0  0  0  0  0  0  0  0  0
   -0.4778    0.3097    1.4089 C   0  0  0  0  0  0  0  0  0  0  0  0
   -0.1785    1.6065    2.0754 C   0  0  0  0  0  0  0  0  0  0  0  0
    0.6288   -0.5746    1.3902 O   0  0  0  0  0  0  0  0  0  0  0  0
    2.8110   -0.5335    0.6618 O   0  0  0  0  0  0  0  0  0  0  0  0
    0.4947    2.4381    1.5497 O   0  0  0  0  0  0  0  0  0  0  0  0
   -1.3556    3.4928   -0.0192 H   0  0  0  0  0  0  0  0  0  0  0  0
   -1.9309    2.9709   -0.0011 H   0  0  0  0  0  0  0  0  0  0  0  0
    1.7502    1.0725    0.7672 H   0  0  0  0  0  0  0  0  0  0  0  0
   -0.4816    1.7981    3.0992 H   0  0  0  0  0  0  0  0  0  0  0  0
   -0.7709    0.4805    0.3645 H   0  0  0  0  0  0  0  0  0  0  0  0
   -1.2977   -0.2252    1.9063 H   0  0  0  0  0  0  0  0  0  0  0  0
  1  4  1  0
  1  5  2  0
  1  9  1  0
  2  3  1  0
  2  4  1  0
  2 11  1  0
  2 12  1  0
  3  6  2  0
  3 10  1  0
  7  8  1  0
M  END
