O=COCC=O.[H][H]_13
     RDKit          3D

 12 10  0  0  0  0  0  0  0  0999 V2000
    0.7836    0.2238    0.4416 C   0  0  0  0  0  0  0  0  0  0  0  0
   -0.7653    1.3101    1.7739 C   0  0  0  0  0  0  0  0  0  0  0  0
   -0.0740    0.8426    3.0063 C   0  0  0  0  0  0  0  0  0  0  0  0
   -0.5304    0.4752    0.6536 O   0  0  0  0  0  0  0  0  0  0  0  0
    1.2898   -0.3346   -0.4970 O   0  0  0  0  0  0  0  0  0  0  0  0
    1.1037    0.9635    3.1455 O   0  0  0  0  0  0  0  0  0  0  0  0
    0.2980    2.1444   -1.6662 H   0  0  0  0  0  0  0  0  0  0  0  0
    0.2419    2.7195   -1.1468 H   0  0  0  0  0  0  0  0  0  0  0  0
    1.4795    0.5274    1.2168 H   0  0  0  0  0  0  0  0  0  0  0  0
   -0.6033    0.2907    3.7757 H   0  0  0  0  0  0  0  0  0  0  0  0
   -0.4173    2.3163    1.5050 H   0  0  0  0  0  0  0  0  0  0  0  0
   -1.8542    1.3542    1.9083 H   0  0  0  0  0  0  0  0  0  0  0  0
  1  4  1  0
  1  5  2  0
  1  9  1  0
  2  3  1  0
  2  4  1  0
  2 11  1  0
  2 12  1  0
  3  6  2  0
  3 10  1  0
  7  8  1  0
M  END
