O=COCC=O.[H][H]_5
     RDKit          3D

 12 10  0  0  0  0  0  0  0  0999 V2000
    1.5524   -0.5379    0.9594 C   0  0  0  0  0  0  0  0  0  0  0  0
    0.5212    1.4508    1.3344 C   0  0  0  0  0  0  0  0  0  0  0  0
   -0.7852    0.8546    1.7386 C   0  0  0  0  0  0  0  0  0  0  0  0
    1.6275    0.6280    1.6309 O   0  0  0  0  0  0  0  0  0  0  0  0
    0.6676   -0.9017    0.2308 O   0  0  0  0  0  0  0  0  0  0  0  0
   -1.6559    1.4553    2.2907 O   0  0  0  0  0  0  0  0  0  0  0  0
   -2.0999    3.5545    0.8334 H   0  0  0  0  0  0  0  0  0  0  0  0
   -1.4828    3.6768    0.3776 H   0  0  0  0  0  0  0  0  0  0  0  0
    2.3772   -1.2230    1.1103 H   0  0  0  0  0  0  0  0  0  0  0  0
   -0.9906   -0.1793    1.4785 H   0  0  0  0  0  0  0  0  0  0  0  0
    0.6789    2.3938    1.8767 H   0  0  0  0  0  0  0  0  0  0  0  0
    0.5416    1.6613    0.2554 H   0  0  0  0  0  0  0  0  0  0  0  0
  1  4  1  0
  1  5  2  0
  1  9  1  0
  2  3  1  0
  2  4  1  0
  2 11  1  0
  2 12  1  0
  3  6  2  0
  3 10  1  0
  7  8  1  0
M  END
