OC=O.C=C=O.[H][H]
     RDKit          3D

 12  9  0  0  0  0  0  0  0  0999 V2000
   -1.4539    0.1978   -1.0856 C   0  0  0  0  0  0  0  0  0  0  0  0
   -0.2805   -0.2678    2.2796 C   0  0  0  0  0  0  0  0  0  0  0  0
   -1.4811    0.1416    2.5748 C   0  0  0  0  0  0  0  0  0  0  0  0
   -0.4728    0.6090   -1.7569 O   0  0  0  0  0  0  0  0  0  0  0  0
   -2.4738    1.0750   -0.7400 O   0  0  0  0  0  0  0  0  0  0  0  0
   -2.6218    0.5312    2.8542 O   0  0  0  0  0  0  0  0  0  0  0  0
   -3.2642    0.7512   -0.1964 H   0  0  0  0  0  0  0  0  0  0  0  0
   -0.5819    2.7494    0.9471 H   0  0  0  0  0  0  0  0  0  0  0  0
   -1.4992   -0.8383   -0.7769 H   0  0  0  0  0  0  0  0  0  0  0  0
    0.0323    2.5088    0.6899 H   0  0  0  0  0  0  0  0  0  0  0  0
   -0.1429   -1.1957    1.7415 H   0  0  0  0  0  0  0  0  0  0  0  0
    0.5774    0.3305    2.5541 H   0  0  0  0  0  0  0  0  0  0  0  0
  1  4  2  0
  1  5  1  0
  1  9  1  0
  2  3  2  0
  2 11  1  0
  2 12  1  0
  3  6  2  0
  5  7  1  0
  8 10  1  0
M  END
