OC(=O)C(=C)O.[H][H]_2
     RDKit          3D

 12 10  0  0  0  0  0  0  0  0999 V2000
   -0.3266   -0.7653    0.0248 C   0  0  0  0  0  0  0  0  0  0  0  0
    0.2773    0.4186    0.1185 C   0  0  0  0  0  0  0  0  0  0  0  0
   -0.0491    1.3722    1.2041 C   0  0  0  0  0  0  0  0  0  0  0  0
   -0.9852    1.0144    2.1108 O   0  0  0  0  0  0  0  0  0  0  0  0
    1.2329    0.8254   -0.7787 O   0  0  0  0  0  0  0  0  0  0  0  0
    0.5392    2.4319    1.2300 O   0  0  0  0  0  0  0  0  0  0  0  0
    1.5374    1.7228   -0.5172 H   0  0  0  0  0  0  0  0  0  0  0  0
   -0.0616   -1.4253   -0.7753 H   0  0  0  0  0  0  0  0  0  0  0  0
   -1.0708   -1.0666    0.7346 H   0  0  0  0  0  0  0  0  0  0  0  0
    0.3595    4.2449    2.9241 H   0  0  0  0  0  0  0  0  0  0  0  0
   -1.0743    1.7492    2.7461 H   0  0  0  0  0  0  0  0  0  0  0  0
   -0.1270    4.2203    3.5292 H   0  0  0  0  0  0  0  0  0  0  0  0
  1  2  2  0
  1  8  1  0
  1  9  1  0
  2  3  1  0
  2  5  1  0
  3  4  1  0
  3  6  2  0
  4 11  1  0
  5  7  1  0
 10 12  1  0
M  END
