OC(=O)C(=C)O.[H][H]_7
     RDKit          3D

 12 10  0  0  0  0  0  0  0  0999 V2000
   -0.8050    0.5613   -0.0071 C   0  0  0  0  0  0  0  0  0  0  0  0
   -0.1094    1.0144    1.0357 C   0  0  0  0  0  0  0  0  0  0  0  0
    0.0790    0.1859    2.2497 C   0  0  0  0  0  0  0  0  0  0  0  0
    0.8015    0.7490    3.2417 O   0  0  0  0  0  0  0  0  0  0  0  0
    0.4642    2.2617    1.0402 O   0  0  0  0  0  0  0  0  0  0  0  0
   -0.3998   -0.9269    2.3170 O   0  0  0  0  0  0  0  0  0  0  0  0
    0.9258    2.3911    1.8988 H   0  0  0  0  0  0  0  0  0  0  0  0
   -0.9229    1.1844   -0.8697 H   0  0  0  0  0  0  0  0  0  0  0  0
   -1.2473   -0.4152    0.0036 H   0  0  0  0  0  0  0  0  0  0  0  0
    0.0114    3.9862   -0.9822 H   0  0  0  0  0  0  0  0  0  0  0  0
    0.8471    0.1034    3.9713 H   0  0  0  0  0  0  0  0  0  0  0  0
    0.6071    3.6470   -1.3479 H   0  0  0  0  0  0  0  0  0  0  0  0
  1  2  2  0
  1  8  1  0
  1  9  1  0
  2  3  1  0
  2  5  1  0
  3  4  1  0
  3  6  2  0
  4 11  1  0
  5  7  1  0
 10 12  1  0
M  END
