OC(=O)C(=C)O.[H][H]_5
     RDKit          3D

 12 10  0  0  0  0  0  0  0  0999 V2000
   -0.4724   -0.2267   -0.4717 C   0  0  0  0  0  0  0  0  0  0  0  0
    0.4461    0.2727    0.3550 C   0  0  0  0  0  0  0  0  0  0  0  0
    0.0891    1.2866    1.3750 C   0  0  0  0  0  0  0  0  0  0  0  0
    1.1026    1.7204    2.1547 O   0  0  0  0  0  0  0  0  0  0  0  0
    1.7600   -0.1225    0.3055 O   0  0  0  0  0  0  0  0  0  0  0  0
   -1.0534    1.6819    1.4771 O   0  0  0  0  0  0  0  0  0  0  0  0
    2.2605    0.3664    0.9964 H   0  0  0  0  0  0  0  0  0  0  0  0
   -0.1819   -0.9580   -1.1978 H   0  0  0  0  0  0  0  0  0  0  0  0
   -1.4950    0.0915   -0.4218 H   0  0  0  0  0  0  0  0  0  0  0  0
   -1.7075    3.9203    2.3753 H   0  0  0  0  0  0  0  0  0  0  0  0
    0.7342    2.3770    2.7743 H   0  0  0  0  0  0  0  0  0  0  0  0
   -1.2306    4.3328    2.8291 H   0  0  0  0  0  0  0  0  0  0  0  0
  1  2  2  0
  1  8  1  0
  1  9  1  0
  2  3  1  0
  2  5  1  0
  3  4  1  0
  3  6  2  0
  4 11  1  0
  5  7  1  0
 10 12  1  0
M  END
