OC(=O)C(=C)O.[H][H]_11
     RDKit          3D

 12 10  0  0  0  0  0  0  0  0999 V2000
   -0.3395   -0.9819   -0.2564 C   0  0  0  0  0  0  0  0  0  0  0  0
    0.2147    0.1596    0.1515 C   0  0  0  0  0  0  0  0  0  0  0  0
   -0.3880    0.9560    1.2461 C   0  0  0  0  0  0  0  0  0  0  0  0
    0.2609    2.0936    1.5745 O   0  0  0  0  0  0  0  0  0  0  0  0
    1.3634    0.6532   -0.4159 O   0  0  0  0  0  0  0  0  0  0  0  0
   -1.4035    0.5814    1.7941 O   0  0  0  0  0  0  0  0  0  0  0  0
    1.5957    1.4976    0.0311 H   0  0  0  0  0  0  0  0  0  0  0  0
    0.1210   -1.5341   -1.0498 H   0  0  0  0  0  0  0  0  0  0  0  0
   -1.2366   -1.3556    0.1963 H   0  0  0  0  0  0  0  0  0  0  0  0
    0.2343    5.2632    3.1579 H   0  0  0  0  0  0  0  0  0  0  0  0
   -0.2377    2.5135    2.2999 H   0  0  0  0  0  0  0  0  0  0  0  0
    0.0669    4.8960    3.8217 H   0  0  0  0  0  0  0  0  0  0  0  0
  1  2  2  0
  1  8  1  0
  1  9  1  0
  2  3  1  0
  2  5  1  0
  3  4  1  0
  3  6  2  0
  4 11  1  0
  5  7  1  0
 10 12  1  0
M  END
