OC(=O)C(=C)O.[H][H]_10
     RDKit          3D

 12 10  0  0  0  0  0  0  0  0999 V2000
   -0.1980    1.7346    0.3473 C   0  0  0  0  0  0  0  0  0  0  0  0
    0.6135    0.9190    1.0201 C   0  0  0  0  0  0  0  0  0  0  0  0
    0.3017    0.5004    2.4069 C   0  0  0  0  0  0  0  0  0  0  0  0
    1.1964   -0.3271    2.9885 O   0  0  0  0  0  0  0  0  0  0  0  0
    1.7709    0.4281    0.4683 O   0  0  0  0  0  0  0  0  0  0  0  0
   -0.7044    0.8947    2.9584 O   0  0  0  0  0  0  0  0  0  0  0  0
    2.2137   -0.1482    1.1307 H   0  0  0  0  0  0  0  0  0  0  0  0
    0.0560    2.0184   -0.6534 H   0  0  0  0  0  0  0  0  0  0  0  0
   -1.0987    2.1103    0.7913 H   0  0  0  0  0  0  0  0  0  0  0  0
   -2.2749    3.8918   -1.2164 H   0  0  0  0  0  0  0  0  0  0  0  0
    0.8722   -0.5208    3.8876 H   0  0  0  0  0  0  0  0  0  0  0  0
   -2.4966    3.2412   -1.5785 H   0  0  0  0  0  0  0  0  0  0  0  0
  1  2  2  0
  1  8  1  0
  1  9  1  0
  2  3  1  0
  2  5  1  0
  3  4  1  0
  3  6  2  0
  4 11  1  0
  5  7  1  0
 10 12  1  0
M  END
