COOC(=O)C_3
     RDKit          3D

 12 11  0  0  0  0  0  0  0  0999 V2000
   -1.4800    0.0217    0.2398 C   0  0  0  0  0  0  0  0  0  0  0  0
    2.1285    0.0676    0.4340 C   0  0  0  0  0  0  0  0  0  0  0  0
    1.4541    0.9133    1.4540 C   0  0  0  0  0  0  0  0  0  0  0  0
   -0.3174    0.7113   -0.0602 O   0  0  0  0  0  0  0  0  0  0  0  0
    0.2002    1.3471    1.1669 O   0  0  0  0  0  0  0  0  0  0  0  0
    2.0420    1.1615    2.4834 O   0  0  0  0  0  0  0  0  0  0  0  0
    3.1786    0.3489    0.3491 H   0  0  0  0  0  0  0  0  0  0  0  0
   -1.8734   -0.4336   -0.6714 H   0  0  0  0  0  0  0  0  0  0  0  0
   -2.1952    0.7377    0.6507 H   0  0  0  0  0  0  0  0  0  0  0  0
   -1.2494   -0.7417    0.9852 H   0  0  0  0  0  0  0  0  0  0  0  0
    2.0742   -0.9840    0.7151 H   0  0  0  0  0  0  0  0  0  0  0  0
    1.6514    0.1963   -0.5381 H   0  0  0  0  0  0  0  0  0  0  0  0
  1  4  1  0
  1  8  1  0
  1  9  1  0
  1 10  1  0
  2  3  1  0
  2  7  1  0
  2 11  1  0
  2 12  1  0
  3  5  1  0
  3  6  2  0
  4  5  1  0
M  END
