COOC(=O)C_1
     RDKit          3D

 12 11  0  0  0  0  0  0  0  0999 V2000
   -1.6838    0.1682    0.6796 C   0  0  0  0  0  0  0  0  0  0  0  0
    2.5866    0.4139    0.3202 C   0  0  0  0  0  0  0  0  0  0  0  0
    1.1781    0.4034    0.7989 C   0  0  0  0  0  0  0  0  0  0  0  0
   -0.7833   -0.6708    1.3117 O   0  0  0  0  0  0  0  0  0  0  0  0
    0.4764   -0.7309    0.5791 O   0  0  0  0  0  0  0  0  0  0  0  0
    0.7095    1.3706    1.3496 O   0  0  0  0  0  0  0  0  0  0  0  0
    3.1912   -0.2795    0.9055 H   0  0  0  0  0  0  0  0  0  0  0  0
   -2.6450    0.1064    1.1943 H   0  0  0  0  0  0  0  0  0  0  0  0
   -1.7798   -0.1499   -0.3605 H   0  0  0  0  0  0  0  0  0  0  0  0
   -1.2851    1.1845    0.7358 H   0  0  0  0  0  0  0  0  0  0  0  0
    2.6380    0.1168   -0.7276 H   0  0  0  0  0  0  0  0  0  0  0  0
    3.0105    1.4134    0.4219 H   0  0  0  0  0  0  0  0  0  0  0  0
  1  4  1  0
  1  8  1  0
  1  9  1  0
  1 10  1  0
  2  3  1  0
  2  7  1  0
  2 11  1  0
  2 12  1  0
  3  5  1  0
  3  6  2  0
  4  5  1  0
M  END
