COOC(=O)C_0
     RDKit          3D

 12 11  0  0  0  0  0  0  0  0999 V2000
   -1.6818    0.3617    0.7037 C   0  0  0  0  0  0  0  0  0  0  0  0
    2.5872    0.2702    0.3064 C   0  0  0  0  0  0  0  0  0  0  0  0
    1.1878    0.2774    0.8072 C   0  0  0  0  0  0  0  0  0  0  0  0
   -0.8739   -0.6821    1.1188 O   0  0  0  0  0  0  0  0  0  0  0  0
    0.3739   -0.7081    0.3645 O   0  0  0  0  0  0  0  0  0  0  0  0
    0.8189    1.1460    1.5599 O   0  0  0  0  0  0  0  0  0  0  0  0
    3.2857    0.2985    1.1428 H   0  0  0  0  0  0  0  0  0  0  0  0
   -1.1843    1.2952    0.9800 H   0  0  0  0  0  0  0  0  0  0  0  0
   -2.6485    0.2813    1.2052 H   0  0  0  0  0  0  0  0  0  0  0  0
   -1.8002    0.2958   -0.3795 H   0  0  0  0  0  0  0  0  0  0  0  0
    2.7782   -0.6306   -0.2773 H   0  0  0  0  0  0  0  0  0  0  0  0
    2.7708    1.1408   -0.3232 H   0  0  0  0  0  0  0  0  0  0  0  0
  1  4  1  0
  1  8  1  0
  1  9  1  0
  1 10  1  0
  2  3  1  0
  2  7  1  0
  2 11  1  0
  2 12  1  0
  3  5  1  0
  3  6  2  0
  4  5  1  0
M  END
