COOC(=O)C
     RDKit          3D

 12 11  0  0  0  0  0  0  0  0999 V2000
   -1.9414    0.1057    0.5490 C   0  0  0  0  0  0  0  0  0  0  0  0
    2.7118    0.2322    0.2682 C   0  0  0  0  0  0  0  0  0  0  0  0
    1.5081    0.5837    1.0746 C   0  0  0  0  0  0  0  0  0  0  0  0
   -0.8598    0.5790    1.3023 O   0  0  0  0  0  0  0  0  0  0  0  0
    0.2394    0.2548    0.6029 O   0  0  0  0  0  0  0  0  0  0  0  0
    1.6401    1.2135    2.1581 O   0  0  0  0  0  0  0  0  0  0  0  0
    3.5499   -0.0525    0.9387 H   0  0  0  0  0  0  0  0  0  0  0  0
   -1.8798   -0.9983    0.4290 H   0  0  0  0  0  0  0  0  0  0  0  0
   -1.9673    0.5978   -0.4481 H   0  0  0  0  0  0  0  0  0  0  0  0
   -2.8841    0.3468    1.0818 H   0  0  0  0  0  0  0  0  0  0  0  0
    2.4829   -0.6226   -0.4022 H   0  0  0  0  0  0  0  0  0  0  0  0
    3.0137    1.1060   -0.3458 H   0  0  0  0  0  0  0  0  0  0  0  0
  1  4  1  0
  1  8  1  0
  1  9  1  0
  1 10  1  0
  2  3  1  0
  2  7  1  0
  2 11  1  0
  2 12  1  0
  3  5  1  0
  3  6  2  0
  4  5  1  0
M  END
