OCOCC=O
     RDKit          3D

 12 11  0  0  0  0  0  0  0  0999 V2000
    0.5538   -0.6952    1.2992 C   0  0  0  0  0  0  0  0  0  0  0  0
    0.4204    1.1782   -0.0519 C   0  0  0  0  0  0  0  0  0  0  0  0
   -0.4696    2.3008   -0.4785 C   0  0  0  0  0  0  0  0  0  0  0  0
   -0.2379    0.4176    0.9394 O   0  0  0  0  0  0  0  0  0  0  0  0
    0.4487   -1.6940    0.3214 O   0  0  0  0  0  0  0  0  0  0  0  0
   -0.8157    3.1519    0.3251 O   0  0  0  0  0  0  0  0  0  0  0  0
    1.0212   -2.4434    0.6305 H   0  0  0  0  0  0  0  0  0  0  0  0
    1.6222   -0.4167    1.4652 H   0  0  0  0  0  0  0  0  0  0  0  0
    0.1672   -1.0918    2.2631 H   0  0  0  0  0  0  0  0  0  0  0  0
   -0.8076    2.3663   -1.5077 H   0  0  0  0  0  0  0  0  0  0  0  0
    0.6497    0.5568   -0.9471 H   0  0  0  0  0  0  0  0  0  0  0  0
    1.3641    1.6145    0.3466 H   0  0  0  0  0  0  0  0  0  0  0  0
  1  4  1  0
  1  5  1  0
  1  8  1  0
  1  9  1  0
  2  3  1  0
  2  4  1  0
  2 11  1  0
  2 12  1  0
  3  6  2  0
  3 10  1  0
  5  7  1  0
M  END
