OCOCC=O_0
     RDKit          3D

 12 11  0  0  0  0  0  0  0  0999 V2000
    0.8601   -0.9110    0.9677 C   0  0  0  0  0  0  0  0  0  0  0  0
    0.8219    1.2459   -0.0182 C   0  0  0  0  0  0  0  0  0  0  0  0
   -0.5448    1.6465   -0.4649 C   0  0  0  0  0  0  0  0  0  0  0  0
    1.0497   -0.1422   -0.1985 O   0  0  0  0  0  0  0  0  0  0  0  0
   -0.3085   -0.6339    1.6912 O   0  0  0  0  0  0  0  0  0  0  0  0
   -1.5400    1.2549    0.0629 O   0  0  0  0  0  0  0  0  0  0  0  0
   -0.8702   -0.0293    1.1542 H   0  0  0  0  0  0  0  0  0  0  0  0
    0.8373   -1.9670    0.6656 H   0  0  0  0  0  0  0  0  0  0  0  0
    1.7233   -0.7648    1.6296 H   0  0  0  0  0  0  0  0  0  0  0  0
   -0.6769    2.2798   -1.3342 H   0  0  0  0  0  0  0  0  0  0  0  0
    1.5956    1.7734   -0.5905 H   0  0  0  0  0  0  0  0  0  0  0  0
    0.9688    1.4926    1.0404 H   0  0  0  0  0  0  0  0  0  0  0  0
  1  4  1  0
  1  5  1  0
  1  8  1  0
  1  9  1  0
  2  3  1  0
  2  4  1  0
  2 11  1  0
  2 12  1  0
  3  6  2  0
  3 10  1  0
  5  7  1  0
M  END
