OCOCC=O_4
     RDKit          3D

 12 11  0  0  0  0  0  0  0  0999 V2000
    0.3152   -0.6095    1.0429 C   0  0  0  0  0  0  0  0  0  0  0  0
    0.2182    0.9302   -0.7405 C   0  0  0  0  0  0  0  0  0  0  0  0
    0.0363    2.1006    0.1621 C   0  0  0  0  0  0  0  0  0  0  0  0
    0.9475   -0.1163   -0.1209 O   0  0  0  0  0  0  0  0  0  0  0  0
    0.9982   -1.6434    1.6965 O   0  0  0  0  0  0  0  0  0  0  0  0
   -0.5037    2.0136    1.2214 O   0  0  0  0  0  0  0  0  0  0  0  0
    1.9615   -1.4842    1.6269 H   0  0  0  0  0  0  0  0  0  0  0  0
    0.2032    0.2256    1.7483 H   0  0  0  0  0  0  0  0  0  0  0  0
   -0.6831   -0.9796    0.7788 H   0  0  0  0  0  0  0  0  0  0  0  0
    0.4138    3.0775   -0.1145 H   0  0  0  0  0  0  0  0  0  0  0  0
   -0.7551    0.5270   -1.0440 H   0  0  0  0  0  0  0  0  0  0  0  0
    0.7644    1.2035   -1.6517 H   0  0  0  0  0  0  0  0  0  0  0  0
  1  4  1  0
  1  5  1  0
  1  8  1  0
  1  9  1  0
  2  3  1  0
  2  4  1  0
  2 11  1  0
  2 12  1  0
  3  6  2  0
  3 10  1  0
  5  7  1  0
M  END
