OCOCC=O_5
     RDKit          3D

 12 11  0  0  0  0  0  0  0  0999 V2000
    0.2243   -0.5509    1.2135 C   0  0  0  0  0  0  0  0  0  0  0  0
   -0.0282    0.7368   -0.6809 C   0  0  0  0  0  0  0  0  0  0  0  0
    0.0787    2.0767   -0.0364 C   0  0  0  0  0  0  0  0  0  0  0  0
   -0.6407   -0.2024    0.1675 O   0  0  0  0  0  0  0  0  0  0  0  0
    1.4928   -0.9730    0.7878 O   0  0  0  0  0  0  0  0  0  0  0  0
    0.5632    2.2414    1.0400 O   0  0  0  0  0  0  0  0  0  0  0  0
    2.0920   -1.1483    1.5465 H   0  0  0  0  0  0  0  0  0  0  0  0
    0.3318    0.3370    1.8555 H   0  0  0  0  0  0  0  0  0  0  0  0
   -0.2591   -1.3531    1.7860 H   0  0  0  0  0  0  0  0  0  0  0  0
   -0.2869    2.9610   -0.5439 H   0  0  0  0  0  0  0  0  0  0  0  0
   -0.6196    0.7749   -1.6047 H   0  0  0  0  0  0  0  0  0  0  0  0
    0.9683    0.3449   -0.9258 H   0  0  0  0  0  0  0  0  0  0  0  0
  1  4  1  0
  1  5  1  0
  1  8  1  0
  1  9  1  0
  2  3  1  0
  2  4  1  0
  2 11  1  0
  2 12  1  0
  3  6  2  0
  3 10  1  0
  5  7  1  0
M  END
