OCOCC=O_6
     RDKit          3D

 12 11  0  0  0  0  0  0  0  0999 V2000
    0.7400   -0.6516    1.1580 C   0  0  0  0  0  0  0  0  0  0  0  0
    0.8626    1.4859    0.1664 C   0  0  0  0  0  0  0  0  0  0  0  0
   -0.5190    1.4726   -0.3877 C   0  0  0  0  0  0  0  0  0  0  0  0
    1.4625    0.2072    0.3089 O   0  0  0  0  0  0  0  0  0  0  0  0
   -0.4633   -1.1255    0.6286 O   0  0  0  0  0  0  0  0  0  0  0  0
   -1.0437    2.4088   -0.9119 O   0  0  0  0  0  0  0  0  0  0  0  0
   -0.2920   -1.5578   -0.2339 H   0  0  0  0  0  0  0  0  0  0  0  0
    1.3859   -1.5068    1.3979 H   0  0  0  0  0  0  0  0  0  0  0  0
    0.5209   -0.1269    2.0955 H   0  0  0  0  0  0  0  0  0  0  0  0
   -1.1329    0.5930   -0.2517 H   0  0  0  0  0  0  0  0  0  0  0  0
    1.5136    2.0588   -0.5061 H   0  0  0  0  0  0  0  0  0  0  0  0
    0.8820    1.9875    1.1414 H   0  0  0  0  0  0  0  0  0  0  0  0
  1  4  1  0
  1  5  1  0
  1  8  1  0
  1  9  1  0
  2  3  1  0
  2  4  1  0
  2 11  1  0
  2 12  1  0
  3  6  2  0
  3 10  1  0
  5  7  1  0
M  END
