OCOCC=O_3
     RDKit          3D

 12 11  0  0  0  0  0  0  0  0999 V2000
    0.4135   -0.5498    1.3408 C   0  0  0  0  0  0  0  0  0  0  0  0
    0.7268    1.1176   -0.2468 C   0  0  0  0  0  0  0  0  0  0  0  0
   -0.4808    1.9749   -0.0866 C   0  0  0  0  0  0  0  0  0  0  0  0
    1.1801    0.5664    0.9756 O   0  0  0  0  0  0  0  0  0  0  0  0
    0.4072   -1.5702    0.3879 O   0  0  0  0  0  0  0  0  0  0  0  0
   -1.1914    2.2965   -0.9912 O   0  0  0  0  0  0  0  0  0  0  0  0
    1.3285   -1.8035    0.1495 H   0  0  0  0  0  0  0  0  0  0  0  0
    0.8029   -0.9375    2.2916 H   0  0  0  0  0  0  0  0  0  0  0  0
   -0.6235   -0.2299    1.5023 H   0  0  0  0  0  0  0  0  0  0  0  0
   -0.7126    2.3825    0.8896 H   0  0  0  0  0  0  0  0  0  0  0  0
    0.5133    0.2932   -0.9393 H   0  0  0  0  0  0  0  0  0  0  0  0
    1.5524    1.7048   -0.6681 H   0  0  0  0  0  0  0  0  0  0  0  0
  1  4  1  0
  1  5  1  0
  1  8  1  0
  1  9  1  0
  2  3  1  0
  2  4  1  0
  2 11  1  0
  2 12  1  0
  3  6  2  0
  3 10  1  0
  5  7  1  0
M  END
