OCOCC=O_2
     RDKit          3D

 12 11  0  0  0  0  0  0  0  0999 V2000
    0.7562   -0.6809    1.4278 C   0  0  0  0  0  0  0  0  0  0  0  0
   -0.1851    0.9173    0.0421 C   0  0  0  0  0  0  0  0  0  0  0  0
   -0.1013    2.3069   -0.4843 C   0  0  0  0  0  0  0  0  0  0  0  0
    0.7504    0.6751    1.0730 O   0  0  0  0  0  0  0  0  0  0  0  0
    0.9536   -1.5498    0.3527 O   0  0  0  0  0  0  0  0  0  0  0  0
   -0.7164    2.6910   -1.4332 O   0  0  0  0  0  0  0  0  0  0  0  0
    1.7705   -1.3001   -0.1274 H   0  0  0  0  0  0  0  0  0  0  0  0
    1.5434   -0.8365    2.1778 H   0  0  0  0  0  0  0  0  0  0  0  0
   -0.2069   -0.9269    1.8921 H   0  0  0  0  0  0  0  0  0  0  0  0
    0.5369    3.0246    0.0172 H   0  0  0  0  0  0  0  0  0  0  0  0
   -1.1907    0.7223    0.4349 H   0  0  0  0  0  0  0  0  0  0  0  0
    0.0058    0.2020   -0.7674 H   0  0  0  0  0  0  0  0  0  0  0  0
  1  4  1  0
  1  5  1  0
  1  8  1  0
  1  9  1  0
  2  3  1  0
  2  4  1  0
  2 11  1  0
  2 12  1  0
  3  6  2  0
  3 10  1  0
  5  7  1  0
M  END
