C=O.CC(=O)O_4
     RDKit          3D

 12 10  0  0  0  0  0  0  0  0999 V2000
   -4.1801   -1.1069    1.1600 C   0  0  0  0  0  0  0  0  0  0  0  0
    0.5230    0.6095    0.4543 C   0  0  0  0  0  0  0  0  0  0  0  0
   -0.3387    0.1374    1.5723 C   0  0  0  0  0  0  0  0  0  0  0  0
   -5.2320   -0.6072    1.3918 O   0  0  0  0  0  0  0  0  0  0  0  0
    0.0597    0.4326    2.8288 O   0  0  0  0  0  0  0  0  0  0  0  0
   -1.3503   -0.4823    1.3346 O   0  0  0  0  0  0  0  0  0  0  0  0
   -0.6010    0.0638    3.4456 H   0  0  0  0  0  0  0  0  0  0  0  0
   -3.2779   -0.5505    1.3607 H   0  0  0  0  0  0  0  0  0  0  0  0
   -4.1315   -2.1048    0.7553 H   0  0  0  0  0  0  0  0  0  0  0  0
    0.8725   -0.2366   -0.1376 H   0  0  0  0  0  0  0  0  0  0  0  0
   -0.0378    1.2777   -0.1996 H   0  0  0  0  0  0  0  0  0  0  0  0
    1.3886    1.1460    0.8437 H   0  0  0  0  0  0  0  0  0  0  0  0
  1  4  2  0
  1  8  1  0
  1  9  1  0
  2  3  1  0
  2 10  1  0
  2 11  1  0
  2 12  1  0
  3  5  1  0
  3  6  2  0
  5  7  1  0
M  END
