C=O.CC(=O)O
     RDKit          3D

 12 10  0  0  0  0  0  0  0  0999 V2000
   -3.4660   -0.9518    0.8420 C   0  0  0  0  0  0  0  0  0  0  0  0
   -0.0819    0.2131    0.4460 C   0  0  0  0  0  0  0  0  0  0  0  0
   -0.4661    0.5862    1.8375 C   0  0  0  0  0  0  0  0  0  0  0  0
   -3.6986   -1.3160    1.9822 O   0  0  0  0  0  0  0  0  0  0  0  0
   -0.4487   -0.3741    2.8438 O   0  0  0  0  0  0  0  0  0  0  0  0
   -0.7717    1.7781    2.1079 O   0  0  0  0  0  0  0  0  0  0  0  0
   -0.6971   -0.1332    3.7959 H   0  0  0  0  0  0  0  0  0  0  0  0
   -3.5604    0.0956    0.5774 H   0  0  0  0  0  0  0  0  0  0  0  0
   -3.1604   -1.6744    0.0935 H   0  0  0  0  0  0  0  0  0  0  0  0
   -0.1923   -0.8822    0.3022 H   0  0  0  0  0  0  0  0  0  0  0  0
   -0.7365    0.7372   -0.2820 H   0  0  0  0  0  0  0  0  0  0  0  0
    0.9744    0.5002    0.2636 H   0  0  0  0  0  0  0  0  0  0  0  0
  1  4  2  0
  1  8  1  0
  1  9  1  0
  2  3  1  0
  2 10  1  0
  2 11  1  0
  2 12  1  0
  3  5  1  0
  3  6  2  0
  5  7  1  0
M  END
