C=O.CC(=O)O_3
     RDKit          3D

 12 10  0  0  0  0  0  0  0  0999 V2000
   -3.5354   -0.8492    0.5626 C   0  0  0  0  0  0  0  0  0  0  0  0
   -0.2956    0.0804    0.6331 C   0  0  0  0  0  0  0  0  0  0  0  0
   -0.4900    0.2799    2.0960 C   0  0  0  0  0  0  0  0  0  0  0  0
   -2.8522   -0.8552   -0.4097 O   0  0  0  0  0  0  0  0  0  0  0  0
    0.5815    0.6786    2.8156 O   0  0  0  0  0  0  0  0  0  0  0  0
   -1.5763    0.0867    2.5947 O   0  0  0  0  0  0  0  0  0  0  0  0
    0.2929    0.7632    3.7448 H   0  0  0  0  0  0  0  0  0  0  0  0
   -4.5708   -1.1428    0.4951 H   0  0  0  0  0  0  0  0  0  0  0  0
   -3.1025   -0.5455    1.5052 H   0  0  0  0  0  0  0  0  0  0  0  0
   -0.9552    0.7396    0.0679 H   0  0  0  0  0  0  0  0  0  0  0  0
    0.7369    0.2883    0.3517 H   0  0  0  0  0  0  0  0  0  0  0  0
   -0.5386   -0.9453    0.3529 H   0  0  0  0  0  0  0  0  0  0  0  0
  1  4  2  0
  1  8  1  0
  1  9  1  0
  2  3  1  0
  2 10  1  0
  2 11  1  0
  2 12  1  0
  3  5  1  0
  3  6  2  0
  5  7  1  0
M  END
