C=O.CC(=O)O_1
     RDKit          3D

 12 10  0  0  0  0  0  0  0  0999 V2000
   -4.0326   -0.7064    1.5921 C   0  0  0  0  0  0  0  0  0  0  0  0
    0.7837    0.4828    0.6233 C   0  0  0  0  0  0  0  0  0  0  0  0
   -0.5776    0.0774    1.0709 C   0  0  0  0  0  0  0  0  0  0  0  0
   -3.4830   -1.0194    2.5983 O   0  0  0  0  0  0  0  0  0  0  0  0
   -0.6801   -0.4387    2.3147 O   0  0  0  0  0  0  0  0  0  0  0  0
   -1.5313    0.2125    0.3359 O   0  0  0  0  0  0  0  0  0  0  0  0
   -1.6289   -0.6572    2.4650 H   0  0  0  0  0  0  0  0  0  0  0  0
   -5.0981   -0.8442    1.4971 H   0  0  0  0  0  0  0  0  0  0  0  0
   -3.4481   -0.2857    0.7845 H   0  0  0  0  0  0  0  0  0  0  0  0
    1.4523   -0.3781    0.6106 H   0  0  0  0  0  0  0  0  0  0  0  0
    0.7394    0.9048   -0.3809 H   0  0  0  0  0  0  0  0  0  0  0  0
    1.1991    1.2311    1.2984 H   0  0  0  0  0  0  0  0  0  0  0  0
  1  4  2  0
  1  8  1  0
  1  9  1  0
  2  3  1  0
  2 10  1  0
  2 11  1  0
  2 12  1  0
  3  5  1  0
  3  6  2  0
  5  7  1  0
M  END
