O[C@H](C#C)OO.[H][H]_11
     RDKit          3D

 12 10  0  0  0  0  0  0  0  0999 V2000
    0.1867    1.8344    2.4959 C   0  0  2  0  0  0  0  0  0  0  0  0
   -1.1711    1.4644    2.2351 C   0  0  0  0  0  0  0  0  0  0  0  0
   -2.3059    1.1074    2.0143 C   0  0  0  0  0  0  0  0  0  0  0  0
    1.0515    1.4357    1.4649 O   0  0  0  0  0  0  0  0  0  0  0  0
    1.2775    0.0205    1.6137 O   0  0  0  0  0  0  0  0  0  0  0  0
    0.7076    1.3033    3.6937 O   0  0  0  0  0  0  0  0  0  0  0  0
    0.9601   -0.3518    0.7742 H   0  0  0  0  0  0  0  0  0  0  0  0
    2.2366    1.9395   -0.6153 H   0  0  0  0  0  0  0  0  0  0  0  0
    0.2634    2.9320    2.5703 H   0  0  0  0  0  0  0  0  0  0  0  0
   -3.3057    0.7896    1.8227 H   0  0  0  0  0  0  0  0  0  0  0  0
    1.1690    0.4705    3.4493 H   0  0  0  0  0  0  0  0  0  0  0  0
    1.9323    1.6457   -1.2670 H   0  0  0  0  0  0  0  0  0  0  0  0
  1  2  1  0
  1  4  1  0
  1  6  1  0
  1  9  1  1
  2  3  3  0
  3 10  1  0
  4  5  1  0
  5  7  1  0
  6 11  1  0
  8 12  1  0
M  END
