O[C@H](C#C)OO.[H][H]_4
     RDKit          3D

 12 10  0  0  0  0  0  0  0  0999 V2000
    0.3628    0.2791    1.9645 C   0  0  2  0  0  0  0  0  0  0  0  0
   -0.7559    1.1641    1.8468 C   0  0  0  0  0  0  0  0  0  0  0  0
   -1.6734    1.9477    1.7557 C   0  0  0  0  0  0  0  0  0  0  0  0
    0.9204    0.2988    3.2525 O   0  0  0  0  0  0  0  0  0  0  0  0
    1.7033    1.5032    3.3657 O   0  0  0  0  0  0  0  0  0  0  0  0
    1.4108    0.5537    1.0619 O   0  0  0  0  0  0  0  0  0  0  0  0
    1.2981    1.9701    4.1154 H   0  0  0  0  0  0  0  0  0  0  0  0
   -0.1970    2.2162   -1.0403 H   0  0  0  0  0  0  0  0  0  0  0  0
    0.0367   -0.7569    1.7734 H   0  0  0  0  0  0  0  0  0  0  0  0
   -2.4793    2.6411    1.6720 H   0  0  0  0  0  0  0  0  0  0  0  0
    2.0451    1.1307    1.5423 H   0  0  0  0  0  0  0  0  0  0  0  0
    0.3307    1.6433   -1.0581 H   0  0  0  0  0  0  0  0  0  0  0  0
  1  2  1  0
  1  4  1  0
  1  6  1  0
  1  9  1  6
  2  3  3  0
  3 10  1  0
  4  5  1  0
  5  7  1  0
  6 11  1  0
  8 12  1  0
M  END
