O[C@H](C#C)OO.[H][H]_9
     RDKit          3D

 12 10  0  0  0  0  0  0  0  0999 V2000
    0.8286    1.5213    2.0961 C   0  0  2  0  0  0  0  0  0  0  0  0
   -0.4566    1.1954    1.5570 C   0  0  0  0  0  0  0  0  0  0  0  0
   -1.5459    0.8866    1.1300 C   0  0  0  0  0  0  0  0  0  0  0  0
    1.7463    0.4693    1.9504 O   0  0  0  0  0  0  0  0  0  0  0  0
    1.4371   -0.5158    2.9554 O   0  0  0  0  0  0  0  0  0  0  0  0
    0.8089    1.8594    3.4649 O   0  0  0  0  0  0  0  0  0  0  0  0
    1.2520   -1.3185    2.4400 H   0  0  0  0  0  0  0  0  0  0  0  0
   -0.5302    3.5025   -0.5575 H   0  0  0  0  0  0  0  0  0  0  0  0
    1.2477    2.3873    1.5571 H   0  0  0  0  0  0  0  0  0  0  0  0
   -2.5071    0.6150    0.7565 H   0  0  0  0  0  0  0  0  0  0  0  0
    1.0104    1.0326    3.9567 H   0  0  0  0  0  0  0  0  0  0  0  0
   -0.2891    2.9561   -1.0547 H   0  0  0  0  0  0  0  0  0  0  0  0
  1  2  1  0
  1  4  1  0
  1  6  1  0
  1  9  1  6
  2  3  3  0
  3 10  1  0
  4  5  1  0
  5  7  1  0
  6 11  1  0
  8 12  1  0
M  END
