O[C@H](C#C)OO.[H][H]_5
     RDKit          3D

 12 10  0  0  0  0  0  0  0  0999 V2000
   -0.1329    1.8700    1.7495 C   0  0  2  0  0  0  0  0  0  0  0  0
   -1.3900    1.3114    2.1448 C   0  0  0  0  0  0  0  0  0  0  0  0
   -2.4307    0.8004    2.4916 C   0  0  0  0  0  0  0  0  0  0  0  0
    0.4782    1.1275    0.7270 O   0  0  0  0  0  0  0  0  0  0  0  0
    1.0518   -0.0484    1.3308 O   0  0  0  0  0  0  0  0  0  0  0  0
    0.8051    1.9724    2.7969 O   0  0  0  0  0  0  0  0  0  0  0  0
    0.6109   -0.7811    0.8693 H   0  0  0  0  0  0  0  0  0  0  0  0
    3.4545    2.1277    0.7915 H   0  0  0  0  0  0  0  0  0  0  0  0
   -0.2878    2.8884    1.3557 H   0  0  0  0  0  0  0  0  0  0  0  0
   -3.3457    0.3482    2.8000 H   0  0  0  0  0  0  0  0  0  0  0  0
    1.3511    1.1560    2.7604 H   0  0  0  0  0  0  0  0  0  0  0  0
    2.8375    1.8186    0.4342 H   0  0  0  0  0  0  0  0  0  0  0  0
  1  2  1  0
  1  4  1  0
  1  6  1  0
  1  9  1  6
  2  3  3  0
  3 10  1  0
  4  5  1  0
  5  7  1  0
  6 11  1  0
  8 12  1  0
M  END
