O[C@H](C#C)OO.[H][H]_10
     RDKit          3D

 12 10  0  0  0  0  0  0  0  0999 V2000
    0.8568    1.5158    2.1167 C   0  0  2  0  0  0  0  0  0  0  0  0
   -0.4228    1.2003    1.5585 C   0  0  0  0  0  0  0  0  0  0  0  0
   -1.5086    0.9007    1.1162 C   0  0  0  0  0  0  0  0  0  0  0  0
    1.7657    0.4534    1.9923 O   0  0  0  0  0  0  0  0  0  0  0  0
    1.4299   -0.5222    2.9982 O   0  0  0  0  0  0  0  0  0  0  0  0
    0.8182    1.8624    3.4829 O   0  0  0  0  0  0  0  0  0  0  0  0
    1.2461   -1.3265    2.4848 H   0  0  0  0  0  0  0  0  0  0  0  0
   -0.7178    3.0905   -1.1896 H   0  0  0  0  0  0  0  0  0  0  0  0
    1.2938    2.3741    1.5795 H   0  0  0  0  0  0  0  0  0  0  0  0
   -2.4667    0.6370    0.7295 H   0  0  0  0  0  0  0  0  0  0  0  0
    1.0030    1.0366    3.9829 H   0  0  0  0  0  0  0  0  0  0  0  0
   -0.2956    3.3693   -0.6000 H   0  0  0  0  0  0  0  0  0  0  0  0
  1  2  1  0
  1  4  1  0
  1  6  1  0
  1  9  1  6
  2  3  3  0
  3 10  1  0
  4  5  1  0
  5  7  1  0
  6 11  1  0
  8 12  1  0
M  END
