O[C@H](C#C)OO.[H][H]_1
     RDKit          3D

 12 10  0  0  0  0  0  0  0  0999 V2000
    0.2433    1.3206    2.9582 C   0  0  2  0  0  0  0  0  0  0  0  0
   -0.7613    1.8346    2.0778 C   0  0  0  0  0  0  0  0  0  0  0  0
   -1.5879    2.2525    1.2991 C   0  0  0  0  0  0  0  0  0  0  0  0
    1.5056    1.8803    2.7063 O   0  0  0  0  0  0  0  0  0  0  0  0
    2.0358    1.2391    1.5297 O   0  0  0  0  0  0  0  0  0  0  0  0
    0.3983   -0.0798    2.8998 O   0  0  0  0  0  0  0  0  0  0  0  0
    2.1824    1.9762    0.9138 H   0  0  0  0  0  0  0  0  0  0  0  0
   -0.2480    0.2726   -0.6039 H   0  0  0  0  0  0  0  0  0  0  0  0
   -0.0150    1.5723    4.0004 H   0  0  0  0  0  0  0  0  0  0  0  0
   -2.3160    2.6171    0.6106 H   0  0  0  0  0  0  0  0  0  0  0  0
    1.1310   -0.2511    2.2673 H   0  0  0  0  0  0  0  0  0  0  0  0
    0.4339   -0.0434   -0.4072 H   0  0  0  0  0  0  0  0  0  0  0  0
  1  2  1  0
  1  4  1  0
  1  6  1  0
  1  9  1  1
  2  3  3  0
  3 10  1  0
  4  5  1  0
  5  7  1  0
  6 11  1  0
  8 12  1  0
M  END
