O[C@H](C#C)OO.[H][H]_15
     RDKit          3D

 12 10  0  0  0  0  0  0  0  0999 V2000
    0.6352    0.6053    1.4321 C   0  0  2  0  0  0  0  0  0  0  0  0
   -0.7606    0.9129    1.5190 C   0  0  0  0  0  0  0  0  0  0  0  0
   -1.9332    1.1860    1.6400 C   0  0  0  0  0  0  0  0  0  0  0  0
    1.0216   -0.3392    2.3971 O   0  0  0  0  0  0  0  0  0  0  0  0
    1.2687    0.3601    3.6343 O   0  0  0  0  0  0  0  0  0  0  0  0
    1.4683    1.7291    1.5585 O   0  0  0  0  0  0  0  0  0  0  0  0
    2.1081   -0.0197    3.9462 H   0  0  0  0  0  0  0  0  0  0  0  0
   -0.4712    3.2893   -0.3752 H   0  0  0  0  0  0  0  0  0  0  0  0
    0.8526    0.1586    0.4478 H   0  0  0  0  0  0  0  0  0  0  0  0
   -2.9659    1.4259    1.7544 H   0  0  0  0  0  0  0  0  0  0  0  0
    1.4906    1.9601    2.5104 H   0  0  0  0  0  0  0  0  0  0  0  0
    0.2880    3.3227   -0.2129 H   0  0  0  0  0  0  0  0  0  0  0  0
  1  2  1  0
  1  4  1  0
  1  6  1  0
  1  9  1  6
  2  3  3  0
  3 10  1  0
  4  5  1  0
  5  7  1  0
  6 11  1  0
  8 12  1  0
M  END
