O[C@H](C#C)OO.[H][H]_14
     RDKit          3D

 12 10  0  0  0  0  0  0  0  0999 V2000
    0.3537    1.6072    2.8521 C   0  0  2  0  0  0  0  0  0  0  0  0
   -0.8297    1.8249    2.0759 C   0  0  0  0  0  0  0  0  0  0  0  0
   -1.8105    1.9818    1.3846 C   0  0  0  0  0  0  0  0  0  0  0  0
    1.5141    1.9755    2.1511 O   0  0  0  0  0  0  0  0  0  0  0  0
    1.9071    0.8664    1.3181 O   0  0  0  0  0  0  0  0  0  0  0  0
    0.5042    0.2809    3.2892 O   0  0  0  0  0  0  0  0  0  0  0  0
    2.8583    0.7737    1.4993 H   0  0  0  0  0  0  0  0  0  0  0  0
    0.3584    0.7627   -0.5855 H   0  0  0  0  0  0  0  0  0  0  0  0
    0.3192    2.2361    3.7570 H   0  0  0  0  0  0  0  0  0  0  0  0
   -2.6695    2.1175    0.7674 H   0  0  0  0  0  0  0  0  0  0  0  0
    0.8027   -0.2419    2.5162 H   0  0  0  0  0  0  0  0  0  0  0  0
   -0.3059    0.4064   -0.7737 H   0  0  0  0  0  0  0  0  0  0  0  0
  1  2  1  0
  1  4  1  0
  1  6  1  0
  1  9  1  1
  2  3  3  0
  3 10  1  0
  4  5  1  0
  5  7  1  0
  6 11  1  0
  8 12  1  0
M  END
