O[C@H](C#C)OO.[H][H]_8
     RDKit          3D

 12 10  0  0  0  0  0  0  0  0999 V2000
    0.9114    1.4156    1.9419 C   0  0  2  0  0  0  0  0  0  0  0  0
   -0.4129    1.1326    1.4784 C   0  0  0  0  0  0  0  0  0  0  0  0
   -1.5377    0.8658    1.1208 C   0  0  0  0  0  0  0  0  0  0  0  0
    1.7195    0.2683    1.9694 O   0  0  0  0  0  0  0  0  0  0  0  0
    1.3431   -0.4977    3.1303 O   0  0  0  0  0  0  0  0  0  0  0  0
    0.9598    1.9801    3.2330 O   0  0  0  0  0  0  0  0  0  0  0  0
    1.0692   -1.3537    2.7609 H   0  0  0  0  0  0  0  0  0  0  0  0
   -0.3229    3.1600   -0.9061 H   0  0  0  0  0  0  0  0  0  0  0  0
    1.3977    2.1321    1.2592 H   0  0  0  0  0  0  0  0  0  0  0  0
   -2.5302    0.6316    0.8086 H   0  0  0  0  0  0  0  0  0  0  0  0
    1.0933    1.2323    3.8567 H   0  0  0  0  0  0  0  0  0  0  0  0
   -0.6883    3.6241   -0.4013 H   0  0  0  0  0  0  0  0  0  0  0  0
  1  2  1  0
  1  4  1  0
  1  6  1  0
  1  9  1  6
  2  3  3  0
  3 10  1  0
  4  5  1  0
  5  7  1  0
  6 11  1  0
  8 12  1  0
M  END
