O[C@H](C#C)OO.[H][H]_16
     RDKit          3D

 12 10  0  0  0  0  0  0  0  0999 V2000
    0.2445    1.3717    2.4131 C   0  0  2  0  0  0  0  0  0  0  0  0
   -1.0177    1.8711    1.9590 C   0  0  0  0  0  0  0  0  0  0  0  0
   -2.0860    2.2658    1.5499 C   0  0  0  0  0  0  0  0  0  0  0  0
    1.3181    1.6562    1.5550 O   0  0  0  0  0  0  0  0  0  0  0  0
    2.4736    0.9301    2.0336 O   0  0  0  0  0  0  0  0  0  0  0  0
    0.2720   -0.0121    2.6867 O   0  0  0  0  0  0  0  0  0  0  0  0
    3.1449    1.6210    2.1564 H   0  0  0  0  0  0  0  0  0  0  0  0
    0.3609    0.3649   -0.4144 H   0  0  0  0  0  0  0  0  0  0  0  0
    0.4953    1.8747    3.3632 H   0  0  0  0  0  0  0  0  0  0  0  0
   -3.0271    2.6070    1.1824 H   0  0  0  0  0  0  0  0  0  0  0  0
    1.1802   -0.3275    2.4788 H   0  0  0  0  0  0  0  0  0  0  0  0
   -0.3567    0.3683   -0.7119 H   0  0  0  0  0  0  0  0  0  0  0  0
  1  2  1  0
  1  4  1  0
  1  6  1  0
  1  9  1  1
  2  3  3  0
  3 10  1  0
  4  5  1  0
  5  7  1  0
  6 11  1  0
  8 12  1  0
M  END
