O[C@H](C#C)OO.[H][H]_0
     RDKit          3D

 12 10  0  0  0  0  0  0  0  0999 V2000
    0.2523    1.3264    2.9419 C   0  0  2  0  0  0  0  0  0  0  0  0
   -0.7382    1.8531    2.0531 C   0  0  0  0  0  0  0  0  0  0  0  0
   -1.5530    2.2809    1.2673 C   0  0  0  0  0  0  0  0  0  0  0  0
    1.5238    1.8700    2.7008 O   0  0  0  0  0  0  0  0  0  0  0  0
    2.0564    1.2209    1.5298 O   0  0  0  0  0  0  0  0  0  0  0  0
    0.3902   -0.0760    2.8847 O   0  0  0  0  0  0  0  0  0  0  0  0
    2.2139    1.9549    0.9129 H   0  0  0  0  0  0  0  0  0  0  0  0
    0.1744    0.3925   -0.6033 H   0  0  0  0  0  0  0  0  0  0  0  0
   -0.0116    1.5813    3.9819 H   0  0  0  0  0  0  0  0  0  0  0  0
   -2.2695    2.6544    0.5715 H   0  0  0  0  0  0  0  0  0  0  0  0
    1.1264   -0.2565    2.2590 H   0  0  0  0  0  0  0  0  0  0  0  0
   -0.1630   -0.2107   -0.2481 H   0  0  0  0  0  0  0  0  0  0  0  0
  1  2  1  0
  1  4  1  0
  1  6  1  0
  1  9  1  1
  2  3  3  0
  3 10  1  0
  4  5  1  0
  5  7  1  0
  6 11  1  0
  8 12  1  0
M  END
