O[C@H](C#C)OO.[H][H]_13
     RDKit          3D

 12 10  0  0  0  0  0  0  0  0999 V2000
    0.3233    1.5357    2.8624 C   0  0  2  0  0  0  0  0  0  0  0  0
   -0.8429    1.8315    2.0860 C   0  0  0  0  0  0  0  0  0  0  0  0
   -1.8066    2.0601    1.3907 C   0  0  0  0  0  0  0  0  0  0  0  0
    1.4910    2.0359    2.2627 O   0  0  0  0  0  0  0  0  0  0  0  0
    1.9414    1.0752    1.2864 O   0  0  0  0  0  0  0  0  0  0  0  0
    0.5047    0.1645    3.1062 O   0  0  0  0  0  0  0  0  0  0  0  0
    2.8908    0.9859    1.4784 H   0  0  0  0  0  0  0  0  0  0  0  0
   -0.2528    0.1617   -0.5416 H   0  0  0  0  0  0  0  0  0  0  0  0
    0.2412    2.0236    3.8477 H   0  0  0  0  0  0  0  0  0  0  0  0
   -2.6505    2.2602    0.7702 H   0  0  0  0  0  0  0  0  0  0  0  0
    0.8439   -0.2303    2.2761 H   0  0  0  0  0  0  0  0  0  0  0  0
    0.3186    0.6872   -0.5732 H   0  0  0  0  0  0  0  0  0  0  0  0
  1  2  1  0
  1  4  1  0
  1  6  1  0
  1  9  1  1
  2  3  3  0
  3 10  1  0
  4  5  1  0
  5  7  1  0
  6 11  1  0
  8 12  1  0
M  END
