O[C@H](C#C)OO.[H][H]_17
     RDKit          3D

 12 10  0  0  0  0  0  0  0  0999 V2000
    0.4547    0.3437    1.6861 C   0  0  2  0  0  0  0  0  0  0  0  0
   -0.8242    0.9874    1.7082 C   0  0  0  0  0  0  0  0  0  0  0  0
   -1.8870    1.5638    1.7609 C   0  0  0  0  0  0  0  0  0  0  0  0
    0.8559   -0.0622    2.9694 O   0  0  0  0  0  0  0  0  0  0  0  0
    1.4567    1.0705    3.6300 O   0  0  0  0  0  0  0  0  0  0  0  0
    1.4752    1.1372    1.1369 O   0  0  0  0  0  0  0  0  0  0  0  0
    2.2664    0.7011    4.0226 H   0  0  0  0  0  0  0  0  0  0  0  0
    0.1600    3.0240   -0.4690 H   0  0  0  0  0  0  0  0  0  0  0  0
    0.3963   -0.5686    1.0697 H   0  0  0  0  0  0  0  0  0  0  0  0
   -2.8212    2.0754    1.8141 H   0  0  0  0  0  0  0  0  0  0  0  0
    1.7216    1.7955    1.8196 H   0  0  0  0  0  0  0  0  0  0  0  0
   -0.2522    2.5235   -0.8968 H   0  0  0  0  0  0  0  0  0  0  0  0
  1  2  1  0
  1  4  1  0
  1  6  1  0
  1  9  1  6
  2  3  3  0
  3 10  1  0
  4  5  1  0
  5  7  1  0
  6 11  1  0
  8 12  1  0
M  END
