O[C@H](C#C)OO.[H][H]
     RDKit          3D

 12 10  0  0  0  0  0  0  0  0999 V2000
    0.4165    1.3573    2.3687 C   0  0  2  0  0  0  0  0  0  0  0  0
   -0.9960    1.4350    1.9774 C   0  0  0  0  0  0  0  0  0  0  0  0
   -2.1558    1.4992    1.6548 C   0  0  0  0  0  0  0  0  0  0  0  0
    1.0075    0.2410    1.7477 O   0  0  0  0  0  0  0  0  0  0  0  0
    2.3090    0.3538    1.9415 O   0  0  0  0  0  0  0  0  0  0  0  0
    0.5196    1.2602    3.7663 O   0  0  0  0  0  0  0  0  0  0  0  0
    2.6780    0.5942    1.0529 H   0  0  0  0  0  0  0  0  0  0  0  0
    0.4318    1.5537   -0.9245 H   0  0  0  0  0  0  0  0  0  0  0  0
    0.9088    2.2975    2.0322 H   0  0  0  0  0  0  0  0  0  0  0  0
   -3.1739    1.5555    1.3715 H   0  0  0  0  0  0  0  0  0  0  0  0
    0.1823    0.3620    4.0249 H   0  0  0  0  0  0  0  0  0  0  0  0
    0.8743    2.0818   -0.7616 H   0  0  0  0  0  0  0  0  0  0  0  0
  1  2  1  0
  1  4  1  0
  1  6  1  0
  1  9  1  6
  2  3  3  0
  3 10  1  0
  4  5  1  0
  5  7  1  0
  6 11  1  0
  8 12  1  0
M  END
