O[C@H](C#C)OO.[H][H]_2
     RDKit          3D

 12 10  0  0  0  0  0  0  0  0999 V2000
    0.7918    0.6447    1.4069 C   0  0  2  0  0  0  0  0  0  0  0  0
   -0.6197    0.8775    1.4508 C   0  0  0  0  0  0  0  0  0  0  0  0
   -1.8080    1.0927    1.5285 C   0  0  0  0  0  0  0  0  0  0  0  0
    1.2089   -0.2687    2.3877 O   0  0  0  0  0  0  0  0  0  0  0  0
    1.2388    0.4325    3.6461 O   0  0  0  0  0  0  0  0  0  0  0  0
    1.5717    1.8076    1.5741 O   0  0  0  0  0  0  0  0  0  0  0  0
    0.6224   -0.0710    4.2035 H   0  0  0  0  0  0  0  0  0  0  0  0
   -0.3472    3.2938   -0.4196 H   0  0  0  0  0  0  0  0  0  0  0  0
    1.0651    0.2116    0.4302 H   0  0  0  0  0  0  0  0  0  0  0  0
   -2.8543    1.2865    1.5974 H   0  0  0  0  0  0  0  0  0  0  0  0
    1.7914    1.8578    2.5308 H   0  0  0  0  0  0  0  0  0  0  0  0
    0.3412    3.4262   -0.0846 H   0  0  0  0  0  0  0  0  0  0  0  0
  1  2  1  0
  1  4  1  0
  1  6  1  0
  1  9  1  6
  2  3  3  0
  3 10  1  0
  4  5  1  0
  5  7  1  0
  6 11  1  0
  8 12  1  0
M  END
