O[C@H](C#C)OO.[H][H]_3
     RDKit          3D

 12 10  0  0  0  0  0  0  0  0999 V2000
    0.1670    0.5299    2.4883 C   0  0  2  0  0  0  0  0  0  0  0  0
   -0.7161    1.5425    1.9949 C   0  0  0  0  0  0  0  0  0  0  0  0
   -1.4260    2.4203    1.5592 C   0  0  0  0  0  0  0  0  0  0  0  0
    1.0935    1.0393    3.4114 O   0  0  0  0  0  0  0  0  0  0  0  0
    2.1099    1.7351    2.6637 O   0  0  0  0  0  0  0  0  0  0  0  0
    0.9094   -0.1253    1.4842 O   0  0  0  0  0  0  0  0  0  0  0  0
    2.0703    2.6414    3.0119 H   0  0  0  0  0  0  0  0  0  0  0  0
   -0.3488    1.1193   -1.0958 H   0  0  0  0  0  0  0  0  0  0  0  0
   -0.4156   -0.2445    3.0147 H   0  0  0  0  0  0  0  0  0  0  0  0
   -2.0494    3.1934    1.1710 H   0  0  0  0  0  0  0  0  0  0  0  0
    1.7715    0.3434    1.4277 H   0  0  0  0  0  0  0  0  0  0  0  0
   -0.1637    0.3963   -0.8797 H   0  0  0  0  0  0  0  0  0  0  0  0
  1  2  1  0
  1  4  1  0
  1  6  1  0
  1  9  1  1
  2  3  3  0
  3 10  1  0
  4  5  1  0
  5  7  1  0
  6 11  1  0
  8 12  1  0
M  END
