O[C@H](C#C)OO.[H][H]_19
     RDKit          3D

 12 10  0  0  0  0  0  0  0  0999 V2000
   -0.1941    1.6075    1.5173 C   0  0  2  0  0  0  0  0  0  0  0  0
   -1.4441    1.2301    2.1050 C   0  0  0  0  0  0  0  0  0  0  0  0
   -2.4766    0.8726    2.6251 C   0  0  0  0  0  0  0  0  0  0  0  0
    0.4060    0.5358    0.8362 O   0  0  0  0  0  0  0  0  0  0  0  0
    1.1180   -0.2659    1.8016 O   0  0  0  0  0  0  0  0  0  0  0  0
    0.7329    2.1143    2.4429 O   0  0  0  0  0  0  0  0  0  0  0  0
    1.9713   -0.4395    1.3681 H   0  0  0  0  0  0  0  0  0  0  0  0
    2.6289    2.6429    0.5493 H   0  0  0  0  0  0  0  0  0  0  0  0
   -0.3637    2.4012    0.7710 H   0  0  0  0  0  0  0  0  0  0  0  0
   -3.3835    0.5495    3.0837 H   0  0  0  0  0  0  0  0  0  0  0  0
    1.0967    1.3457    2.9297 H   0  0  0  0  0  0  0  0  0  0  0  0
    2.9102    1.9970    0.2219 H   0  0  0  0  0  0  0  0  0  0  0  0
  1  2  1  0
  1  4  1  0
  1  6  1  0
  1  9  1  6
  2  3  3  0
  3 10  1  0
  4  5  1  0
  5  7  1  0
  6 11  1  0
  8 12  1  0
M  END
