OC=C.OC=O_6
     RDKit          3D

 12 10  0  0  0  0  0  0  0  0999 V2000
   -1.1169    0.7583    3.7493 C   0  0  0  0  0  0  0  0  0  0  0  0
   -0.3260    1.7657    3.4031 C   0  0  0  0  0  0  0  0  0  0  0  0
   -0.4889   -0.6236   -0.7080 C   0  0  0  0  0  0  0  0  0  0  0  0
   -1.5035   -0.2552    2.9189 O   0  0  0  0  0  0  0  0  0  0  0  0
    0.0322   -0.4989   -1.9402 O   0  0  0  0  0  0  0  0  0  0  0  0
   -0.3346    0.1022    0.2384 O   0  0  0  0  0  0  0  0  0  0  0  0
   -0.2352   -1.2168   -2.5523 H   0  0  0  0  0  0  0  0  0  0  0  0
   -1.0992   -0.1158    2.0222 H   0  0  0  0  0  0  0  0  0  0  0  0
   -1.5077    0.6959    4.7561 H   0  0  0  0  0  0  0  0  0  0  0  0
   -1.1310   -1.4764   -0.5200 H   0  0  0  0  0  0  0  0  0  0  0  0
   -0.0559    2.5340    4.0991 H   0  0  0  0  0  0  0  0  0  0  0  0
    0.0597    1.8250    2.4057 H   0  0  0  0  0  0  0  0  0  0  0  0
  1  2  2  0
  1  4  1  0
  1  9  1  0
  2 11  1  0
  2 12  1  0
  3  5  1  0
  3  6  2  0
  3 10  1  0
  4  8  1  0
  5  7  1  0
M  END
