OC=C.OC=O_8
     RDKit          3D

 12 10  0  0  0  0  0  0  0  0999 V2000
   -0.6410    1.0809    2.7118 C   0  0  0  0  0  0  0  0  0  0  0  0
   -0.6160    1.8660    3.7810 C   0  0  0  0  0  0  0  0  0  0  0  0
   -0.5086   -0.4939   -0.7680 C   0  0  0  0  0  0  0  0  0  0  0  0
   -0.9218   -0.2594    2.7578 O   0  0  0  0  0  0  0  0  0  0  0  0
   -0.8292   -1.5084    0.0530 O   0  0  0  0  0  0  0  0  0  0  0  0
   -0.3167    0.6557   -0.4700 O   0  0  0  0  0  0  0  0  0  0  0  0
   -0.9390   -2.3648   -0.4097 H   0  0  0  0  0  0  0  0  0  0  0  0
   -0.8838   -0.6443    1.8439 H   0  0  0  0  0  0  0  0  0  0  0  0
   -0.4301    1.5045    1.7367 H   0  0  0  0  0  0  0  0  0  0  0  0
   -0.4057   -0.7116   -1.8244 H   0  0  0  0  0  0  0  0  0  0  0  0
   -0.3920    2.9118    3.7101 H   0  0  0  0  0  0  0  0  0  0  0  0
   -0.8231    1.4580    4.7499 H   0  0  0  0  0  0  0  0  0  0  0  0
  1  2  2  0
  1  4  1  0
  1  9  1  0
  2 11  1  0
  2 12  1  0
  3  5  1  0
  3  6  2  0
  3 10  1  0
  4  8  1  0
  5  7  1  0
M  END
