OC=C.OC=O_2
     RDKit          3D

 12 10  0  0  0  0  0  0  0  0999 V2000
   -0.6403    0.7008    3.2892 C   0  0  0  0  0  0  0  0  0  0  0  0
    0.2747    1.5766    2.8906 C   0  0  0  0  0  0  0  0  0  0  0  0
   -0.9717   -0.6329   -1.0725 C   0  0  0  0  0  0  0  0  0  0  0  0
   -1.2833   -0.1687    2.4442 O   0  0  0  0  0  0  0  0  0  0  0  0
   -0.3693    0.1767   -0.1880 O   0  0  0  0  0  0  0  0  0  0  0  0
   -0.7850   -0.7054   -2.2584 O   0  0  0  0  0  0  0  0  0  0  0  0
   -0.6961    0.0485    0.7352 H   0  0  0  0  0  0  0  0  0  0  0  0
   -1.9187   -0.7249    2.9478 H   0  0  0  0  0  0  0  0  0  0  0  0
   -0.9056    0.6579    4.3393 H   0  0  0  0  0  0  0  0  0  0  0  0
   -1.7222   -1.3126   -0.6905 H   0  0  0  0  0  0  0  0  0  0  0  0
    0.7582    2.2420    3.5777 H   0  0  0  0  0  0  0  0  0  0  0  0
    0.5521    1.6362    1.8575 H   0  0  0  0  0  0  0  0  0  0  0  0
  1  2  2  0
  1  4  1  0
  1  9  1  0
  2 11  1  0
  2 12  1  0
  3  5  1  0
  3  6  2  0
  3 10  1  0
  4  8  1  0
  5  7  1  0
M  END
