OC=C.OC=O_3
     RDKit          3D

 12 10  0  0  0  0  0  0  0  0999 V2000
   -1.0385    0.5926    3.5765 C   0  0  0  0  0  0  0  0  0  0  0  0
   -0.0070    1.0207    2.8610 C   0  0  0  0  0  0  0  0  0  0  0  0
   -0.8264   -0.3526   -0.5914 C   0  0  0  0  0  0  0  0  0  0  0  0
   -2.0773   -0.1492    3.0885 O   0  0  0  0  0  0  0  0  0  0  0  0
    0.2872    0.3649   -0.3657 O   0  0  0  0  0  0  0  0  0  0  0  0
   -1.6786   -0.6544    0.2016 O   0  0  0  0  0  0  0  0  0  0  0  0
    0.8402    0.4874   -1.1658 H   0  0  0  0  0  0  0  0  0  0  0  0
   -1.9380   -0.3156    2.1195 H   0  0  0  0  0  0  0  0  0  0  0  0
   -1.1022    0.8260    4.6308 H   0  0  0  0  0  0  0  0  0  0  0  0
   -0.9992   -0.7138   -1.5986 H   0  0  0  0  0  0  0  0  0  0  0  0
    0.7802    1.6006    3.2989 H   0  0  0  0  0  0  0  0  0  0  0  0
    0.0524    0.7877    1.8169 H   0  0  0  0  0  0  0  0  0  0  0  0
  1  2  2  0
  1  4  1  0
  1  9  1  0
  2 11  1  0
  2 12  1  0
  3  5  1  0
  3  6  2  0
  3 10  1  0
  4  8  1  0
  5  7  1  0
M  END
