OC=C.OC=O_12
     RDKit          3D

 12 10  0  0  0  0  0  0  0  0999 V2000
   -0.2422    0.7048    3.3813 C   0  0  0  0  0  0  0  0  0  0  0  0
   -0.5111    1.9705    3.6729 C   0  0  0  0  0  0  0  0  0  0  0  0
   -1.1789   -1.1216   -1.2548 C   0  0  0  0  0  0  0  0  0  0  0  0
   -0.3012    0.1556    2.1320 O   0  0  0  0  0  0  0  0  0  0  0  0
   -0.5158   -0.3102   -0.4149 O   0  0  0  0  0  0  0  0  0  0  0  0
   -1.6543   -0.8508   -2.3261 O   0  0  0  0  0  0  0  0  0  0  0  0
   -0.2192   -0.7638    0.4063 H   0  0  0  0  0  0  0  0  0  0  0  0
   -0.5742    0.8500    1.4849 H   0  0  0  0  0  0  0  0  0  0  0  0
    0.0511    0.0173    4.1637 H   0  0  0  0  0  0  0  0  0  0  0  0
   -1.3145   -2.1513   -0.9487 H   0  0  0  0  0  0  0  0  0  0  0  0
   -0.4458    2.3418    4.6758 H   0  0  0  0  0  0  0  0  0  0  0  0
   -0.8010    2.6520    2.8997 H   0  0  0  0  0  0  0  0  0  0  0  0
  1  2  2  0
  1  4  1  0
  1  9  1  0
  2 11  1  0
  2 12  1  0
  3  5  1  0
  3  6  2  0
  3 10  1  0
  4  8  1  0
  5  7  1  0
M  END
