OC=C.OC=O_0
     RDKit          3D

 12 10  0  0  0  0  0  0  0  0999 V2000
   -0.2535    1.0074    2.6680 C   0  0  0  0  0  0  0  0  0  0  0  0
   -0.3572    1.6935    3.7984 C   0  0  0  0  0  0  0  0  0  0  0  0
   -0.7304   -1.0802   -1.1636 C   0  0  0  0  0  0  0  0  0  0  0  0
   -1.2974    0.4426    1.9878 O   0  0  0  0  0  0  0  0  0  0  0  0
   -0.3350   -1.3954    0.0797 O   0  0  0  0  0  0  0  0  0  0  0  0
   -0.4835   -1.6563   -2.1901 O   0  0  0  0  0  0  0  0  0  0  0  0
   -0.6679   -0.7609    0.7597 H   0  0  0  0  0  0  0  0  0  0  0  0
   -2.1370    0.6305    2.4609 H   0  0  0  0  0  0  0  0  0  0  0  0
    0.7176    0.8590    2.2133 H   0  0  0  0  0  0  0  0  0  0  0  0
   -1.3492   -0.1994   -1.2773 H   0  0  0  0  0  0  0  0  0  0  0  0
    0.5021    2.1107    4.2836 H   0  0  0  0  0  0  0  0  0  0  0  0
   -1.3157    1.8428    4.2518 H   0  0  0  0  0  0  0  0  0  0  0  0
  1  2  2  0
  1  4  1  0
  1  9  1  0
  2 11  1  0
  2 12  1  0
  3  5  1  0
  3  6  2  0
  3 10  1  0
  4  8  1  0
  5  7  1  0
M  END
