OC=C.OC=O_9
     RDKit          3D

 12 10  0  0  0  0  0  0  0  0999 V2000
   -0.6341    0.9720    2.4637 C   0  0  0  0  0  0  0  0  0  0  0  0
   -0.6529    1.7273    3.5532 C   0  0  0  0  0  0  0  0  0  0  0  0
    0.0086   -0.7806   -0.2331 C   0  0  0  0  0  0  0  0  0  0  0  0
   -1.7226    0.3638    1.8998 O   0  0  0  0  0  0  0  0  0  0  0  0
   -0.1914   -1.5662   -1.3032 O   0  0  0  0  0  0  0  0  0  0  0  0
    1.0402   -0.3018    0.1609 O   0  0  0  0  0  0  0  0  0  0  0  0
   -1.1295   -1.8303   -1.4159 H   0  0  0  0  0  0  0  0  0  0  0  0
   -2.5254    0.5730    2.4279 H   0  0  0  0  0  0  0  0  0  0  0  0
    0.2993    0.7950    1.9444 H   0  0  0  0  0  0  0  0  0  0  0  0
   -0.8642   -0.5371    0.3638 H   0  0  0  0  0  0  0  0  0  0  0  0
    0.2394    2.1749    3.9418 H   0  0  0  0  0  0  0  0  0  0  0  0
   -1.5744    1.9044    4.0687 H   0  0  0  0  0  0  0  0  0  0  0  0
  1  2  2  0
  1  4  1  0
  1  9  1  0
  2 11  1  0
  2 12  1  0
  3  5  1  0
  3  6  2  0
  3 10  1  0
  4  8  1  0
  5  7  1  0
M  END
