CO/C=C\OO_7
     RDKit          3D

 12 11  0  0  0  0  0  0  0  0999 V2000
   -1.5545    0.1926   -0.4766 C   0  0  0  0  0  0  0  0  0  0  0  0
    1.7622    0.2718    0.8687 C   0  0  0  0  0  0  0  0  0  0  0  0
    0.6831    0.0266    0.1242 C   0  0  0  0  0  0  0  0  0  0  0  0
    1.7156    0.9754    2.0469 O   0  0  0  0  0  0  0  0  0  0  0  0
    2.9669    0.8068    2.7895 O   0  0  0  0  0  0  0  0  0  0  0  0
   -0.5796    0.4595    0.5020 O   0  0  0  0  0  0  0  0  0  0  0  0
    2.6875    0.3648    3.6082 H   0  0  0  0  0  0  0  0  0  0  0  0
   -2.5134    0.5724   -0.1174 H   0  0  0  0  0  0  0  0  0  0  0  0
   -1.6269   -0.8852   -0.6382 H   0  0  0  0  0  0  0  0  0  0  0  0
    0.7793   -0.5252   -0.7985 H   0  0  0  0  0  0  0  0  0  0  0  0
   -1.2874    0.7000   -1.4065 H   0  0  0  0  0  0  0  0  0  0  0  0
    2.7387   -0.0771    0.5716 H   0  0  0  0  0  0  0  0  0  0  0  0
  1  6  1  0
  1  8  1  0
  1  9  1  0
  1 11  1  0
  2  3  2  0
  2  4  1  0
  2 12  1  0
  3  6  1  0
  3 10  1  0
  4  5  1  0
  5  7  1  0
M  END
