CO/C=C\OO_0
     RDKit          3D

 12 11  0  0  0  0  0  0  0  0999 V2000
   -1.0098    0.4743    0.2293 C   0  0  0  0  0  0  0  0  0  0  0  0
    1.7942    0.1825    0.2880 C   0  0  0  0  0  0  0  0  0  0  0  0
    0.9461   -0.7780   -0.0747 C   0  0  0  0  0  0  0  0  0  0  0  0
    1.3966    1.2451    1.0699 O   0  0  0  0  0  0  0  0  0  0  0  0
    0.8343    0.7899    2.3389 O   0  0  0  0  0  0  0  0  0  0  0  0
   -0.4048   -0.7930    0.2474 O   0  0  0  0  0  0  0  0  0  0  0  0
    1.5828    0.8511    2.9551 H   0  0  0  0  0  0  0  0  0  0  0  0
   -2.0900    0.3492    0.3289 H   0  0  0  0  0  0  0  0  0  0  0  0
   -0.7754    0.9790   -0.7103 H   0  0  0  0  0  0  0  0  0  0  0  0
    1.2945   -1.6198   -0.6555 H   0  0  0  0  0  0  0  0  0  0  0  0
   -0.6244    1.0510    1.0738 H   0  0  0  0  0  0  0  0  0  0  0  0
    2.8276    0.1511   -0.0168 H   0  0  0  0  0  0  0  0  0  0  0  0
  1  6  1  0
  1  8  1  0
  1  9  1  0
  1 11  1  0
  2  3  2  0
  2  4  1  0
  2 12  1  0
  3  6  1  0
  3 10  1  0
  4  5  1  0
  5  7  1  0
M  END
