CO/C=C\OO
     RDKit          3D

 12 11  0  0  0  0  0  0  0  0999 V2000
   -1.5873    0.2290   -0.3999 C   0  0  0  0  0  0  0  0  0  0  0  0
    1.8781    0.0805    0.7873 C   0  0  0  0  0  0  0  0  0  0  0  0
    0.8237   -0.0302   -0.0127 C   0  0  0  0  0  0  0  0  0  0  0  0
    1.7329    0.5650    2.0834 O   0  0  0  0  0  0  0  0  0  0  0  0
    2.7979    0.6752    2.8868 O   0  0  0  0  0  0  0  0  0  0  0  0
   -0.4443    0.3381    0.4364 O   0  0  0  0  0  0  0  0  0  0  0  0
    2.4336    1.0362    3.7340 H   0  0  0  0  0  0  0  0  0  0  0  0
   -2.4820    0.5744    0.1576 H   0  0  0  0  0  0  0  0  0  0  0  0
   -1.7366   -0.8291   -0.7027 H   0  0  0  0  0  0  0  0  0  0  0  0
    0.9563   -0.4097   -1.0193 H   0  0  0  0  0  0  0  0  0  0  0  0
   -1.4583    0.8618   -1.3035 H   0  0  0  0  0  0  0  0  0  0  0  0
    2.8576   -0.2089    0.4264 H   0  0  0  0  0  0  0  0  0  0  0  0
  1  6  1  0
  1  8  1  0
  1  9  1  0
  1 11  1  0
  2  3  2  0
  2  4  1  0
  2 12  1  0
  3  6  1  0
  3 10  1  0
  4  5  1  0
  5  7  1  0
M  END
