CO/C=C\OO_5
     RDKit          3D

 12 11  0  0  0  0  0  0  0  0999 V2000
   -1.2024    0.2877    0.0880 C   0  0  0  0  0  0  0  0  0  0  0  0
    2.1172    0.4346    0.4677 C   0  0  0  0  0  0  0  0  0  0  0  0
    1.0657   -0.2854    0.0779 C   0  0  0  0  0  0  0  0  0  0  0  0
    2.0609    1.1948    1.6174 O   0  0  0  0  0  0  0  0  0  0  0  0
    1.5414    0.4178    2.7273 O   0  0  0  0  0  0  0  0  0  0  0  0
   -0.1265   -0.2843    0.8037 O   0  0  0  0  0  0  0  0  0  0  0  0
    0.6134    0.2594    2.4768 H   0  0  0  0  0  0  0  0  0  0  0  0
   -1.5658    1.1585    0.6382 H   0  0  0  0  0  0  0  0  0  0  0  0
   -2.0019   -0.4517    0.0029 H   0  0  0  0  0  0  0  0  0  0  0  0
    1.1150   -0.8877   -0.8177 H   0  0  0  0  0  0  0  0  0  0  0  0
   -0.8790    0.5968   -0.9087 H   0  0  0  0  0  0  0  0  0  0  0  0
    3.0336    0.4416   -0.0999 H   0  0  0  0  0  0  0  0  0  0  0  0
  1  6  1  0
  1  8  1  0
  1  9  1  0
  1 11  1  0
  2  3  2  0
  2  4  1  0
  2 12  1  0
  3  6  1  0
  3 10  1  0
  4  5  1  0
  5  7  1  0
M  END
