CO/C=C\OO_2
     RDKit          3D

 12 11  0  0  0  0  0  0  0  0999 V2000
   -1.0121    0.2898    0.3278 C   0  0  0  0  0  0  0  0  0  0  0  0
    1.8257   -0.3617    0.5025 C   0  0  0  0  0  0  0  0  0  0  0  0
    1.2237    0.5409   -0.2720 C   0  0  0  0  0  0  0  0  0  0  0  0
    1.3196   -0.6382    1.7572 O   0  0  0  0  0  0  0  0  0  0  0  0
    1.2129    0.5817    2.5508 O   0  0  0  0  0  0  0  0  0  0  0  0
    0.0545    1.1884    0.1310 O   0  0  0  0  0  0  0  0  0  0  0  0
    0.6612    1.1711    2.0041 H   0  0  0  0  0  0  0  0  0  0  0  0
   -1.8879    0.8526    0.6579 H   0  0  0  0  0  0  0  0  0  0  0  0
   -0.7363   -0.4444    1.0897 H   0  0  0  0  0  0  0  0  0  0  0  0
    1.6305    0.7966   -1.2396 H   0  0  0  0  0  0  0  0  0  0  0  0
   -1.2345   -0.2163   -0.6139 H   0  0  0  0  0  0  0  0  0  0  0  0
    2.7143   -0.8781    0.1784 H   0  0  0  0  0  0  0  0  0  0  0  0
  1  6  1  0
  1  8  1  0
  1  9  1  0
  1 11  1  0
  2  3  2  0
  2  4  1  0
  2 12  1  0
  3  6  1  0
  3 10  1  0
  4  5  1  0
  5  7  1  0
M  END
