OC/C(=C\O)/O_14
     RDKit          3D

 12 11  0  0  0  0  0  0  0  0999 V2000
    1.4020   -0.1661   -0.5399 C   0  0  0  0  0  0  0  0  0  0  0  0
    1.3190    0.5194    0.7838 C   0  0  0  0  0  0  0  0  0  0  0  0
    0.1837    1.1387    1.1502 C   0  0  0  0  0  0  0  0  0  0  0  0
    1.0172   -1.5179   -0.4458 O   0  0  0  0  0  0  0  0  0  0  0  0
    2.4406    0.4679    1.6051 O   0  0  0  0  0  0  0  0  0  0  0  0
   -0.9290    1.2070    0.3292 O   0  0  0  0  0  0  0  0  0  0  0  0
    2.2038    0.7314    2.5212 H   0  0  0  0  0  0  0  0  0  0  0  0
    0.7462    0.3425   -1.2595 H   0  0  0  0  0  0  0  0  0  0  0  0
    2.4347   -0.1152   -0.9085 H   0  0  0  0  0  0  0  0  0  0  0  0
    0.1414    1.6118    2.1212 H   0  0  0  0  0  0  0  0  0  0  0  0
   -1.7067    1.5490    0.8241 H   0  0  0  0  0  0  0  0  0  0  0  0
    1.0612   -1.9676   -1.3200 H   0  0  0  0  0  0  0  0  0  0  0  0
  1  2  1  0
  1  4  1  0
  1  8  1  0
  1  9  1  0
  2  3  2  0
  2  5  1  0
  3  6  1  0
  3 10  1  0
  4 12  1  0
  5  7  1  0
  6 11  1  0
M  END
