OC/C(=C\O)/O_3
     RDKit          3D

 12 11  0  0  0  0  0  0  0  0999 V2000
    1.1401   -0.2858   -0.3345 C   0  0  0  0  0  0  0  0  0  0  0  0
    1.0992    0.6476    0.8270 C   0  0  0  0  0  0  0  0  0  0  0  0
   -0.0750    1.0790    1.3180 C   0  0  0  0  0  0  0  0  0  0  0  0
    2.4684   -0.6057   -0.6813 O   0  0  0  0  0  0  0  0  0  0  0  0
    2.3083    1.0465    1.3718 O   0  0  0  0  0  0  0  0  0  0  0  0
   -1.2948    0.6921    0.7873 O   0  0  0  0  0  0  0  0  0  0  0  0
    3.0258    0.6122    0.8591 H   0  0  0  0  0  0  0  0  0  0  0  0
    0.5997   -1.2078   -0.0841 H   0  0  0  0  0  0  0  0  0  0  0  0
    0.6431    0.1779   -1.1962 H   0  0  0  0  0  0  0  0  0  0  0  0
   -0.0612    1.7556    2.1618 H   0  0  0  0  0  0  0  0  0  0  0  0
   -2.0357    1.1106    1.2795 H   0  0  0  0  0  0  0  0  0  0  0  0
    2.4962   -1.2213   -1.4474 H   0  0  0  0  0  0  0  0  0  0  0  0
  1  2  1  0
  1  4  1  0
  1  8  1  0
  1  9  1  0
  2  3  2  0
  2  5  1  0
  3  6  1  0
  3 10  1  0
  4 12  1  0
  5  7  1  0
  6 11  1  0
M  END
