OC/C(=C\O)/O_10
     RDKit          3D

 12 11  0  0  0  0  0  0  0  0999 V2000
    1.0091   -0.1863   -0.2789 C   0  0  0  0  0  0  0  0  0  0  0  0
    1.0823    0.6924    0.9213 C   0  0  0  0  0  0  0  0  0  0  0  0
   -0.0297    1.1469    1.5212 C   0  0  0  0  0  0  0  0  0  0  0  0
    2.3015   -0.5272   -0.7286 O   0  0  0  0  0  0  0  0  0  0  0  0
    2.3412    1.0224    1.3947 O   0  0  0  0  0  0  0  0  0  0  0  0
   -1.3254    0.8771    1.1302 O   0  0  0  0  0  0  0  0  0  0  0  0
    3.0047    0.5894    0.8131 H   0  0  0  0  0  0  0  0  0  0  0  0
    0.4656   -1.1081   -0.0353 H   0  0  0  0  0  0  0  0  0  0  0  0
    0.4783    0.3301   -1.0887 H   0  0  0  0  0  0  0  0  0  0  0  0
    0.0660    1.7829    2.3896 H   0  0  0  0  0  0  0  0  0  0  0  0
   -1.3409    0.2880    0.3440 H   0  0  0  0  0  0  0  0  0  0  0  0
    2.2614   -1.1067   -1.5215 H   0  0  0  0  0  0  0  0  0  0  0  0
  1  2  1  0
  1  4  1  0
  1  8  1  0
  1  9  1  0
  2  3  2  0
  2  5  1  0
  3  6  1  0
  3 10  1  0
  4 12  1  0
  5  7  1  0
  6 11  1  0
M  END
