OC/C(=C\O)/O_12
     RDKit          3D

 12 11  0  0  0  0  0  0  0  0999 V2000
    0.8049   -0.4295   -0.4415 C   0  0  0  0  0  0  0  0  0  0  0  0
    1.1474    0.5351    0.6411 C   0  0  0  0  0  0  0  0  0  0  0  0
    0.1864    1.1589    1.3410 C   0  0  0  0  0  0  0  0  0  0  0  0
    1.9165   -0.7006   -1.2610 O   0  0  0  0  0  0  0  0  0  0  0  0
    2.4995    0.7393    0.8826 O   0  0  0  0  0  0  0  0  0  0  0  0
   -1.1727    0.9814    1.1703 O   0  0  0  0  0  0  0  0  0  0  0  0
    2.6199    1.4310    1.5684 H   0  0  0  0  0  0  0  0  0  0  0  0
    0.4544   -1.3787   -0.0166 H   0  0  0  0  0  0  0  0  0  0  0  0
    0.0137   -0.0303   -1.0880 H   0  0  0  0  0  0  0  0  0  0  0  0
    0.4659    1.8662    2.1071 H   0  0  0  0  0  0  0  0  0  0  0  0
   -1.3619    0.1297    0.7172 H   0  0  0  0  0  0  0  0  0  0  0  0
    2.7399   -0.5016   -0.7594 H   0  0  0  0  0  0  0  0  0  0  0  0
  1  2  1  0
  1  4  1  0
  1  8  1  0
  1  9  1  0
  2  3  2  0
  2  5  1  0
  3  6  1  0
  3 10  1  0
  4 12  1  0
  5  7  1  0
  6 11  1  0
M  END
