OC/C(=C\O)/O
     RDKit          3D

 12 11  0  0  0  0  0  0  0  0999 V2000
    1.1053   -0.7669   -0.2377 C   0  0  0  0  0  0  0  0  0  0  0  0
    1.2316    0.3033    0.8098 C   0  0  0  0  0  0  0  0  0  0  0  0
    0.2065    1.1095    1.1087 C   0  0  0  0  0  0  0  0  0  0  0  0
    1.0701   -0.1944   -1.5164 O   0  0  0  0  0  0  0  0  0  0  0  0
    2.4563    0.4585    1.4596 O   0  0  0  0  0  0  0  0  0  0  0  0
   -1.0201    0.9820    0.4634 O   0  0  0  0  0  0  0  0  0  0  0  0
    2.6013    1.1677    2.1693 H   0  0  0  0  0  0  0  0  0  0  0  0
    1.9563   -1.4806   -0.1582 H   0  0  0  0  0  0  0  0  0  0  0  0
    0.1725   -1.3479   -0.0745 H   0  0  0  0  0  0  0  0  0  0  0  0
    0.3251    1.8775    1.8633 H   0  0  0  0  0  0  0  0  0  0  0  0
   -1.7884    1.5985    0.6976 H   0  0  0  0  0  0  0  0  0  0  0  0
    1.9975    0.0937   -1.7239 H   0  0  0  0  0  0  0  0  0  0  0  0
  1  2  1  0
  1  4  1  0
  1  8  1  0
  1  9  1  0
  2  3  2  0
  2  5  1  0
  3  6  1  0
  3 10  1  0
  4 12  1  0
  5  7  1  0
  6 11  1  0
M  END
