OC/C(=C\O)/O_5
     RDKit          3D

 12 11  0  0  0  0  0  0  0  0999 V2000
    1.5944   -0.4114   -0.2410 C   0  0  0  0  0  0  0  0  0  0  0  0
    1.2685    0.4299    0.9533 C   0  0  0  0  0  0  0  0  0  0  0  0
    0.1720    1.2086    0.9342 C   0  0  0  0  0  0  0  0  0  0  0  0
    0.4824   -1.1288   -0.7143 O   0  0  0  0  0  0  0  0  0  0  0  0
    2.0988    0.4109    2.0757 O   0  0  0  0  0  0  0  0  0  0  0  0
   -0.7028    1.2648   -0.1385 O   0  0  0  0  0  0  0  0  0  0  0  0
    2.7569   -0.3134    1.9996 H   0  0  0  0  0  0  0  0  0  0  0  0
    1.9749    0.2182   -1.0558 H   0  0  0  0  0  0  0  0  0  0  0  0
    2.3744   -1.1437   -0.0039 H   0  0  0  0  0  0  0  0  0  0  0  0
   -0.0435    1.8173    1.8030 H   0  0  0  0  0  0  0  0  0  0  0  0
   -1.3808    1.9608    0.0053 H   0  0  0  0  0  0  0  0  0  0  0  0
   -0.2812   -0.5122   -0.7566 H   0  0  0  0  0  0  0  0  0  0  0  0
  1  2  1  0
  1  4  1  0
  1  8  1  0
  1  9  1  0
  2  3  2  0
  2  5  1  0
  3  6  1  0
  3 10  1  0
  4 12  1  0
  5  7  1  0
  6 11  1  0
M  END
