OC/C(=C\O)/O_9
     RDKit          3D

 12 11  0  0  0  0  0  0  0  0999 V2000
    0.9583   -0.1045   -0.4674 C   0  0  0  0  0  0  0  0  0  0  0  0
    1.0886    0.6724    0.7952 C   0  0  0  0  0  0  0  0  0  0  0  0
    0.0162    0.9555    1.5523 C   0  0  0  0  0  0  0  0  0  0  0  0
    2.1728   -0.7231   -0.8115 O   0  0  0  0  0  0  0  0  0  0  0  0
    2.3592    1.0935    1.1529 O   0  0  0  0  0  0  0  0  0  0  0  0
   -1.2860    0.5995    1.2494 O   0  0  0  0  0  0  0  0  0  0  0  0
    2.9810    0.8643    0.4247 H   0  0  0  0  0  0  0  0  0  0  0  0
    0.1785   -0.8721   -0.3832 H   0  0  0  0  0  0  0  0  0  0  0  0
    0.6863    0.5600   -1.2960 H   0  0  0  0  0  0  0  0  0  0  0  0
    0.1550    1.4976    2.4769 H   0  0  0  0  0  0  0  0  0  0  0  0
   -1.4347    0.6144    0.2770 H   0  0  0  0  0  0  0  0  0  0  0  0
    2.4388   -1.3567   -0.1093 H   0  0  0  0  0  0  0  0  0  0  0  0
  1  2  1  0
  1  4  1  0
  1  8  1  0
  1  9  1  0
  2  3  2  0
  2  5  1  0
  3  6  1  0
  3 10  1  0
  4 12  1  0
  5  7  1  0
  6 11  1  0
M  END
