OC/C(=C\O)/O_13
     RDKit          3D

 12 11  0  0  0  0  0  0  0  0999 V2000
    0.8654   -0.5556   -0.3629 C   0  0  0  0  0  0  0  0  0  0  0  0
    1.1608    0.4631    0.6831 C   0  0  0  0  0  0  0  0  0  0  0  0
    0.1800    0.9914    1.4330 C   0  0  0  0  0  0  0  0  0  0  0  0
    1.7997   -0.4879   -1.4095 O   0  0  0  0  0  0  0  0  0  0  0  0
    2.4958    0.8083    0.8374 O   0  0  0  0  0  0  0  0  0  0  0  0
   -1.1670    0.6852    1.2908 O   0  0  0  0  0  0  0  0  0  0  0  0
    2.5936    1.4648    1.5606 H   0  0  0  0  0  0  0  0  0  0  0  0
    0.8990   -1.5647    0.0681 H   0  0  0  0  0  0  0  0  0  0  0  0
   -0.1307   -0.4115   -0.7961 H   0  0  0  0  0  0  0  0  0  0  0  0
    0.4329    1.6993    2.2083 H   0  0  0  0  0  0  0  0  0  0  0  0
   -1.4834    0.9164    0.3873 H   0  0  0  0  0  0  0  0  0  0  0  0
    2.6680   -0.2079   -1.0390 H   0  0  0  0  0  0  0  0  0  0  0  0
  1  2  1  0
  1  4  1  0
  1  8  1  0
  1  9  1  0
  2  3  2  0
  2  5  1  0
  3  6  1  0
  3 10  1  0
  4 12  1  0
  5  7  1  0
  6 11  1  0
M  END
