OC/C(=C\O)/O_6
     RDKit          3D

 12 11  0  0  0  0  0  0  0  0999 V2000
    0.9572   -0.6052   -0.4431 C   0  0  0  0  0  0  0  0  0  0  0  0
    1.1658    0.4464    0.5927 C   0  0  0  0  0  0  0  0  0  0  0  0
    0.1173    1.0260    1.2012 C   0  0  0  0  0  0  0  0  0  0  0  0
    2.0337   -0.6563   -1.3448 O   0  0  0  0  0  0  0  0  0  0  0  0
    2.4844    0.7685    0.8837 O   0  0  0  0  0  0  0  0  0  0  0  0
   -1.1934    0.6910    0.9036 O   0  0  0  0  0  0  0  0  0  0  0  0
    2.5157    1.4869    1.5521 H   0  0  0  0  0  0  0  0  0  0  0  0
    0.8485   -1.5907    0.0278 H   0  0  0  0  0  0  0  0  0  0  0  0
    0.0446   -0.4050   -1.0185 H   0  0  0  0  0  0  0  0  0  0  0  0
    0.3071    1.7813    1.9500 H   0  0  0  0  0  0  0  0  0  0  0  0
   -1.8197    1.2347    1.4313 H   0  0  0  0  0  0  0  0  0  0  0  0
    2.8528   -0.3767   -0.8750 H   0  0  0  0  0  0  0  0  0  0  0  0
  1  2  1  0
  1  4  1  0
  1  8  1  0
  1  9  1  0
  2  3  2  0
  2  5  1  0
  3  6  1  0
  3 10  1  0
  4 12  1  0
  5  7  1  0
  6 11  1  0
M  END
