OC/C(=C\O)/O_11
     RDKit          3D

 12 11  0  0  0  0  0  0  0  0999 V2000
    1.0101   -0.0656   -0.5048 C   0  0  0  0  0  0  0  0  0  0  0  0
    1.1002    0.7130    0.7606 C   0  0  0  0  0  0  0  0  0  0  0  0
    0.0024    1.2006    1.3612 C   0  0  0  0  0  0  0  0  0  0  0  0
    2.1488   -0.8682   -0.6912 O   0  0  0  0  0  0  0  0  0  0  0  0
    2.3660    0.9307    1.2809 O   0  0  0  0  0  0  0  0  0  0  0  0
   -1.2964    1.0155    0.9134 O   0  0  0  0  0  0  0  0  0  0  0  0
    3.0311    0.6096    0.6298 H   0  0  0  0  0  0  0  0  0  0  0  0
    0.1173   -0.7015   -0.5283 H   0  0  0  0  0  0  0  0  0  0  0  0
    0.9497    0.6164   -1.3615 H   0  0  0  0  0  0  0  0  0  0  0  0
    0.1159    1.7941    2.2576 H   0  0  0  0  0  0  0  0  0  0  0  0
   -1.4630    0.0698    0.6978 H   0  0  0  0  0  0  0  0  0  0  0  0
    2.2319   -1.5135    0.0454 H   0  0  0  0  0  0  0  0  0  0  0  0
  1  2  1  0
  1  4  1  0
  1  8  1  0
  1  9  1  0
  2  3  2  0
  2  5  1  0
  3  6  1  0
  3 10  1  0
  4 12  1  0
  5  7  1  0
  6 11  1  0
M  END
