OOC=C=C.O_0
     RDKit          3D

 12 10  0  0  0  0  0  0  0  0999 V2000
   -1.4239   -0.7994    1.1577 C   0  0  0  0  0  0  0  0  0  0  0  0
   -0.6332   -0.3593    2.1338 C   0  0  0  0  0  0  0  0  0  0  0  0
    0.1503    0.1641    3.0235 C   0  0  0  0  0  0  0  0  0  0  0  0
   -1.3039   -0.4489   -0.1420 O   0  0  0  0  0  0  0  0  0  0  0  0
   -0.1176    0.3653   -0.3752 O   0  0  0  0  0  0  0  0  0  0  0  0
   -1.7609    2.4579    0.7883 O   0  0  0  0  0  0  0  0  0  0  0  0
    0.4813   -0.2371   -0.8452 H   0  0  0  0  0  0  0  0  0  0  0  0
    0.2886    1.2267    3.0665 H   0  0  0  0  0  0  0  0  0  0  0  0
   -2.2367   -1.4734    1.3848 H   0  0  0  0  0  0  0  0  0  0  0  0
    0.7003   -0.4437    3.7142 H   0  0  0  0  0  0  0  0  0  0  0  0
   -1.3553    1.6406    0.4262 H   0  0  0  0  0  0  0  0  0  0  0  0
   -2.1484    2.9090    0.0197 H   0  0  0  0  0  0  0  0  0  0  0  0
  1  2  2  0
  1  4  1  0
  1  9  1  0
  2  3  2  0
  3  8  1  0
  3 10  1  0
  4  5  1  0
  5  7  1  0
  6 11  1  0
  6 12  1  0
M  END
