OOC=C=C.O_2
     RDKit          3D

 12 10  0  0  0  0  0  0  0  0999 V2000
   -0.6612   -0.6091    1.6211 C   0  0  0  0  0  0  0  0  0  0  0  0
   -0.2387   -0.7037    2.8818 C   0  0  0  0  0  0  0  0  0  0  0  0
    0.1992   -0.7808    4.0996 C   0  0  0  0  0  0  0  0  0  0  0  0
   -0.0567    0.0913    0.6377 O   0  0  0  0  0  0  0  0  0  0  0  0
   -0.8163   -0.0191   -0.6094 O   0  0  0  0  0  0  0  0  0  0  0  0
   -1.8825    2.5976   -1.2370 O   0  0  0  0  0  0  0  0  0  0  0  0
   -1.1563    0.8855   -0.7651 H   0  0  0  0  0  0  0  0  0  0  0  0
   -0.4366   -1.1007    4.9011 H   0  0  0  0  0  0  0  0  0  0  0  0
   -1.5581   -1.1254    1.3126 H   0  0  0  0  0  0  0  0  0  0  0  0
    1.2120   -0.5239    4.3387 H   0  0  0  0  0  0  0  0  0  0  0  0
   -2.4791    2.8818   -1.9470 H   0  0  0  0  0  0  0  0  0  0  0  0
   -1.4850    3.4081   -0.8819 H   0  0  0  0  0  0  0  0  0  0  0  0
  1  2  2  0
  1  4  1  0
  1  9  1  0
  2  3  2  0
  3  8  1  0
  3 10  1  0
  4  5  1  0
  5  7  1  0
  6 11  1  0
  6 12  1  0
M  END
