OOC=C=C.O_1
     RDKit          3D

 12 10  0  0  0  0  0  0  0  0999 V2000
   -0.8944   -0.3278    1.3200 C   0  0  0  0  0  0  0  0  0  0  0  0
   -0.4425   -0.3309    2.5740 C   0  0  0  0  0  0  0  0  0  0  0  0
    0.0201   -0.3007    3.7847 C   0  0  0  0  0  0  0  0  0  0  0  0
   -0.2316    0.1654    0.2512 O   0  0  0  0  0  0  0  0  0  0  0  0
   -1.0345    0.0320   -0.9635 O   0  0  0  0  0  0  0  0  0  0  0  0
   -1.7066    2.7525    0.0603 O   0  0  0  0  0  0  0  0  0  0  0  0
   -0.5746   -0.6597   -1.4659 H   0  0  0  0  0  0  0  0  0  0  0  0
    0.1708   -1.2014    4.3460 H   0  0  0  0  0  0  0  0  0  0  0  0
   -1.8706   -0.7326    1.0958 H   0  0  0  0  0  0  0  0  0  0  0  0
    0.2960    0.6273    4.2450 H   0  0  0  0  0  0  0  0  0  0  0  0
   -1.3340    1.8524   -0.0593 H   0  0  0  0  0  0  0  0  0  0  0  0
   -1.7577    3.1253   -0.8359 H   0  0  0  0  0  0  0  0  0  0  0  0
  1  2  2  0
  1  4  1  0
  1  9  1  0
  2  3  2  0
  3  8  1  0
  3 10  1  0
  4  5  1  0
  5  7  1  0
  6 11  1  0
  6 12  1  0
M  END
