OOC=C=C.O
     RDKit          3D

 12 10  0  0  0  0  0  0  0  0999 V2000
   -0.2395   -0.7375    0.9885 C   0  0  0  0  0  0  0  0  0  0  0  0
   -0.3460   -0.1962    2.1685 C   0  0  0  0  0  0  0  0  0  0  0  0
   -0.4530    0.3471    3.3474 C   0  0  0  0  0  0  0  0  0  0  0  0
   -1.1543   -0.4143   -0.0063 O   0  0  0  0  0  0  0  0  0  0  0  0
   -1.0505   -0.9616   -1.2234 O   0  0  0  0  0  0  0  0  0  0  0  0
   -1.4055    2.8772    0.5025 O   0  0  0  0  0  0  0  0  0  0  0  0
   -1.8044   -0.5737   -1.7351 H   0  0  0  0  0  0  0  0  0  0  0  0
   -0.6602    1.4045    3.4382 H   0  0  0  0  0  0  0  0  0  0  0  0
    0.5626   -1.4362    0.7890 H   0  0  0  0  0  0  0  0  0  0  0  0
   -0.3352   -0.2593    4.2349 H   0  0  0  0  0  0  0  0  0  0  0  0
   -1.9887    2.3344    1.0906 H   0  0  0  0  0  0  0  0  0  0  0  0
   -0.4847    2.6173    0.7575 H   0  0  0  0  0  0  0  0  0  0  0  0
  1  2  2  0
  1  4  1  0
  1  9  1  0
  2  3  2  0
  3  8  1  0
  3 10  1  0
  4  5  1  0
  5  7  1  0
  6 11  1  0
  6 12  1  0
M  END
