CC(=N)C
     RDKit          3D

 11 10  0  0  0  0  0  0  0  0999 V2000
   -1.0906    0.0491    0.6634 C   0  0  0  0  0  0  0  0  0  0  0  0
    0.3646    0.5800    2.5216 N   0  0  0  0  0  0  0  0  0  0  0  0
    0.2548    0.3646    1.2590 C   0  0  0  0  0  0  0  0  0  0  0  0
    1.4843    0.4340    0.4009 C   0  0  0  0  0  0  0  0  0  0  0  0
    1.2497    0.2288   -0.6644 H   0  0  0  0  0  0  0  0  0  0  0  0
   -0.4531    0.5426    3.1483 H   0  0  0  0  0  0  0  0  0  0  0  0
   -1.4971   -0.8727    1.1299 H   0  0  0  0  0  0  0  0  0  0  0  0
   -1.7888    0.8910    0.8545 H   0  0  0  0  0  0  0  0  0  0  0  0
   -1.0230   -0.1109   -0.4328 H   0  0  0  0  0  0  0  0  0  0  0  0
    2.2243   -0.3164    0.7501 H   0  0  0  0  0  0  0  0  0  0  0  0
    1.9327    1.4470    0.4748 H   0  0  0  0  0  0  0  0  0  0  0  0
  1  3  1  0
  1  7  1  0
  1  8  1  0
  1  9  1  0
  2  3  2  0
  2  6  1  0
  3  4  1  0
  4  5  1  0
  4 10  1  0
  4 11  1  0
M  END
