CC=O.[H][H]
     RDKit          3D

  9  7  0  0  0  0  0  0  0  0999 V2000
   -1.4422    0.6273    1.6196 C   0  0  0  0  0  0  0  0  0  0  0  0
   -0.0559    0.9839    2.0446 C   0  0  0  0  0  0  0  0  0  0  0  0
   -2.3887    1.3067    1.9820 O   0  0  0  0  0  0  0  0  0  0  0  0
    0.1856    0.7152   -1.1919 H   0  0  0  0  0  0  0  0  0  0  0  0
   -0.0427    1.3853   -1.1789 H   0  0  0  0  0  0  0  0  0  0  0  0
   -1.6121   -0.2372    0.9860 H   0  0  0  0  0  0  0  0  0  0  0  0
    0.6664    0.2558    1.6200 H   0  0  0  0  0  0  0  0  0  0  0  0
    0.0146    0.9611    3.1523 H   0  0  0  0  0  0  0  0  0  0  0  0
    0.1982    2.0010    1.6795 H   0  0  0  0  0  0  0  0  0  0  0  0
  1  2  1  0
  1  3  2  0
  1  6  1  0
  2  7  1  0
  2  8  1  0
  2  9  1  0
  4  5  1  0
M  END
