OC1=COOC1.[H][H]_12
     RDKit          3D

 12 11  0  0  0  0  0  0  0  0999 V2000
   -0.5094    0.3403    0.6571 C   0  0  0  0  0  0  0  0  0  0  0  0
   -0.1739    0.1930    2.9158 C   0  0  0  0  0  0  0  0  0  0  0  0
   -0.7656    0.9589    1.9889 C   0  0  0  0  0  0  0  0  0  0  0  0
    0.2562   -0.8159    0.8757 O   0  0  0  0  0  0  0  0  0  0  0  0
    0.4624   -0.8915    2.3358 O   0  0  0  0  0  0  0  0  0  0  0  0
   -1.4878    2.1159    2.1999 O   0  0  0  0  0  0  0  0  0  0  0  0
    1.1085    2.4712   -2.1965 H   0  0  0  0  0  0  0  0  0  0  0  0
    0.0607    1.0138    0.0047 H   0  0  0  0  0  0  0  0  0  0  0  0
   -1.4446    0.0478    0.1627 H   0  0  0  0  0  0  0  0  0  0  0  0
    0.9803    1.8009   -2.5677 H   0  0  0  0  0  0  0  0  0  0  0  0
   -1.5218    2.3274    3.1572 H   0  0  0  0  0  0  0  0  0  0  0  0
   -0.1899    0.3938    3.9740 H   0  0  0  0  0  0  0  0  0  0  0  0
  1  3  1  0
  1  4  1  0
  1  8  1  0
  1  9  1  0
  2  3  2  0
  2  5  1  0
  2 12  1  0
  3  6  1  0
  4  5  1  0
  6 11  1  0
  7 10  1  0
M  END
