OC1=COOC1.[H][H]_19
     RDKit          3D

 12 11  0  0  0  0  0  0  0  0999 V2000
   -0.1681    0.2035    0.6936 C   0  0  0  0  0  0  0  0  0  0  0  0
   -0.2166   -0.0382    2.9682 C   0  0  0  0  0  0  0  0  0  0  0  0
   -0.3188    0.8926    2.0085 C   0  0  0  0  0  0  0  0  0  0  0  0
    0.0244   -1.1620    0.9589 O   0  0  0  0  0  0  0  0  0  0  0  0
   -0.0104   -1.2961    2.4283 O   0  0  0  0  0  0  0  0  0  0  0  0
   -0.5266    2.2414    2.2262 O   0  0  0  0  0  0  0  0  0  0  0  0
   -0.4506    2.7309   -1.3143 H   0  0  0  0  0  0  0  0  0  0  0  0
    0.7067    0.5686    0.1412 H   0  0  0  0  0  0  0  0  0  0  0  0
   -1.0688    0.3056    0.0755 H   0  0  0  0  0  0  0  0  0  0  0  0
   -0.3442    2.6233   -2.0762 H   0  0  0  0  0  0  0  0  0  0  0  0
   -0.5662    2.7221    1.3720 H   0  0  0  0  0  0  0  0  0  0  0  0
   -0.2856    0.1641    4.0256 H   0  0  0  0  0  0  0  0  0  0  0  0
  1  3  1  0
  1  4  1  0
  1  8  1  0
  1  9  1  0
  2  3  2  0
  2  5  1  0
  2 12  1  0
  3  6  1  0
  4  5  1  0
  6 11  1  0
  7 10  1  0
M  END
