OC1=COOC1.[H][H]_3
     RDKit          3D

 12 11  0  0  0  0  0  0  0  0999 V2000
   -1.2733    0.4726    0.5696 C   0  0  0  0  0  0  0  0  0  0  0  0
    0.1663    1.2097    2.1884 C   0  0  0  0  0  0  0  0  0  0  0  0
   -1.1374    1.0055    1.9551 C   0  0  0  0  0  0  0  0  0  0  0  0
    0.0192    0.3846    0.0291 O   0  0  0  0  0  0  0  0  0  0  0  0
    0.9310    0.8639    1.0872 O   0  0  0  0  0  0  0  0  0  0  0  0
   -2.1862    1.2375    2.8217 O   0  0  0  0  0  0  0  0  0  0  0  0
    2.2757    0.5191   -0.9565 H   0  0  0  0  0  0  0  0  0  0  0  0
   -1.8675    1.1442   -0.0632 H   0  0  0  0  0  0  0  0  0  0  0  0
   -1.7183   -0.5308    0.5665 H   0  0  0  0  0  0  0  0  0  0  0  0
    2.8501    0.4692   -1.4770 H   0  0  0  0  0  0  0  0  0  0  0  0
   -1.8530    1.5879    3.6751 H   0  0  0  0  0  0  0  0  0  0  0  0
    0.5684    1.5925    3.1115 H   0  0  0  0  0  0  0  0  0  0  0  0
  1  3  1  0
  1  4  1  0
  1  8  1  0
  1  9  1  0
  2  3  2  0
  2  5  1  0
  2 12  1  0
  3  6  1  0
  4  5  1  0
  6 11  1  0
  7 10  1  0
M  END
