OC1=COOC1.[H][H]_7
     RDKit          3D

 12 11  0  0  0  0  0  0  0  0999 V2000
   -0.7121    0.7526    0.5578 C   0  0  0  0  0  0  0  0  0  0  0  0
    0.1009    0.6248    2.6930 C   0  0  0  0  0  0  0  0  0  0  0  0
   -0.9655    1.0433    1.9977 C   0  0  0  0  0  0  0  0  0  0  0  0
    0.5504    0.1446    0.4722 O   0  0  0  0  0  0  0  0  0  0  0  0
    1.0581    0.0751    1.8569 O   0  0  0  0  0  0  0  0  0  0  0  0
   -2.1059    1.6387    2.4976 O   0  0  0  0  0  0  0  0  0  0  0  0
    1.6599    0.5746   -1.7084 H   0  0  0  0  0  0  0  0  0  0  0  0
   -0.6943    1.6725   -0.0406 H   0  0  0  0  0  0  0  0  0  0  0  0
   -1.4583    0.0588    0.1499 H   0  0  0  0  0  0  0  0  0  0  0  0
    1.1864    0.9404   -2.2039 H   0  0  0  0  0  0  0  0  0  0  0  0
   -2.0463    1.7256    3.4728 H   0  0  0  0  0  0  0  0  0  0  0  0
    0.2018    0.7049    3.7624 H   0  0  0  0  0  0  0  0  0  0  0  0
  1  3  1  0
  1  4  1  0
  1  8  1  0
  1  9  1  0
  2  3  2  0
  2  5  1  0
  2 12  1  0
  3  6  1  0
  4  5  1  0
  6 11  1  0
  7 10  1  0
M  END
