OC1=COOC1.[H][H]_9
     RDKit          3D

 12 11  0  0  0  0  0  0  0  0999 V2000
   -1.1181    0.9444    0.3954 C   0  0  0  0  0  0  0  0  0  0  0  0
    0.5554    1.6811    1.7709 C   0  0  0  0  0  0  0  0  0  0  0  0
   -0.6880    1.1804    1.8046 C   0  0  0  0  0  0  0  0  0  0  0  0
   -0.0536    1.3311   -0.4349 O   0  0  0  0  0  0  0  0  0  0  0  0
    1.0113    1.8067    0.4698 O   0  0  0  0  0  0  0  0  0  0  0  0
   -1.4177    0.9364    2.9524 O   0  0  0  0  0  0  0  0  0  0  0  0
    1.6373   -0.6818    0.1711 H   0  0  0  0  0  0  0  0  0  0  0  0
   -1.9930    1.5512    0.1307 H   0  0  0  0  0  0  0  0  0  0  0  0
   -1.3295   -0.1155    0.2065 H   0  0  0  0  0  0  0  0  0  0  0  0
    1.3384   -1.1941    0.6730 H   0  0  0  0  0  0  0  0  0  0  0  0
   -2.2964    0.5644    2.7246 H   0  0  0  0  0  0  0  0  0  0  0  0
    1.1292    1.9515    2.6435 H   0  0  0  0  0  0  0  0  0  0  0  0
  1  3  1  0
  1  4  1  0
  1  8  1  0
  1  9  1  0
  2  3  2  0
  2  5  1  0
  2 12  1  0
  3  6  1  0
  4  5  1  0
  6 11  1  0
  7 10  1  0
M  END
