OC1=COOC1.[H][H]_18
     RDKit          3D

 12 11  0  0  0  0  0  0  0  0999 V2000
   -1.5684   -0.2339    1.2061 C   0  0  0  0  0  0  0  0  0  0  0  0
    0.6712    0.1926    1.3987 C   0  0  0  0  0  0  0  0  0  0  0  0
   -0.4948    0.8000    1.1358 C   0  0  0  0  0  0  0  0  0  0  0  0
   -0.9504   -1.4548    1.5218 O   0  0  0  0  0  0  0  0  0  0  0  0
    0.4904   -1.1583    1.6413 O   0  0  0  0  0  0  0  0  0  0  0  0
   -0.6479    2.1440    0.8534 O   0  0  0  0  0  0  0  0  0  0  0  0
    2.1704    3.3468    0.7098 H   0  0  0  0  0  0  0  0  0  0  0  0
   -2.0827   -0.3520    0.2441 H   0  0  0  0  0  0  0  0  0  0  0  0
   -2.2985   -0.0089    1.9936 H   0  0  0  0  0  0  0  0  0  0  0  0
    1.4505    3.6382    0.6886 H   0  0  0  0  0  0  0  0  0  0  0  0
   -1.5933    2.3529    0.6950 H   0  0  0  0  0  0  0  0  0  0  0  0
    1.6285    0.6893    1.4194 H   0  0  0  0  0  0  0  0  0  0  0  0
  1  3  1  0
  1  4  1  0
  1  8  1  0
  1  9  1  0
  2  3  2  0
  2  5  1  0
  2 12  1  0
  3  6  1  0
  4  5  1  0
  6 11  1  0
  7 10  1  0
M  END
