OC1=COOC1.[H][H]_0
     RDKit          3D

 12 11  0  0  0  0  0  0  0  0999 V2000
   -1.1459    0.1185    0.5425 C   0  0  0  0  0  0  0  0  0  0  0  0
    0.3583    0.7448    2.1493 C   0  0  0  0  0  0  0  0  0  0  0  0
   -0.8654    1.0335    1.6855 C   0  0  0  0  0  0  0  0  0  0  0  0
   -0.0169   -0.6994    0.3776 O   0  0  0  0  0  0  0  0  0  0  0  0
    0.9373   -0.2836    1.4250 O   0  0  0  0  0  0  0  0  0  0  0  0
   -1.7311    1.9978    2.1601 O   0  0  0  0  0  0  0  0  0  0  0  0
    1.3853    1.9446   -0.5331 H   0  0  0  0  0  0  0  0  0  0  0  0
   -1.3085    0.6762   -0.3887 H   0  0  0  0  0  0  0  0  0  0  0  0
   -2.0117   -0.5246    0.7458 H   0  0  0  0  0  0  0  0  0  0  0  0
    1.6684    1.2212   -0.5450 H   0  0  0  0  0  0  0  0  0  0  0  0
   -1.3260    2.4802    2.9119 H   0  0  0  0  0  0  0  0  0  0  0  0
    0.8312    1.2467    2.9768 H   0  0  0  0  0  0  0  0  0  0  0  0
  1  3  1  0
  1  4  1  0
  1  8  1  0
  1  9  1  0
  2  3  2  0
  2  5  1  0
  2 12  1  0
  3  6  1  0
  4  5  1  0
  6 11  1  0
  7 10  1  0
M  END
