OC1=COOC1.[H][H]_17
     RDKit          3D

 12 11  0  0  0  0  0  0  0  0999 V2000
   -1.5744   -0.1910    1.2968 C   0  0  0  0  0  0  0  0  0  0  0  0
    0.6868    0.1404    1.1894 C   0  0  0  0  0  0  0  0  0  0  0  0
   -0.4780    0.7804    1.0126 C   0  0  0  0  0  0  0  0  0  0  0  0
   -0.9705   -1.4108    1.6422 O   0  0  0  0  0  0  0  0  0  0  0  0
    0.4846   -1.1758    1.5676 O   0  0  0  0  0  0  0  0  0  0  0  0
   -0.6119    2.1027    0.6344 O   0  0  0  0  0  0  0  0  0  0  0  0
    1.4867    3.6231    0.7538 H   0  0  0  0  0  0  0  0  0  0  0  0
   -2.2050   -0.3616    0.4153 H   0  0  0  0  0  0  0  0  0  0  0  0
   -2.1951    0.1323    2.1418 H   0  0  0  0  0  0  0  0  0  0  0  0
    2.0545    3.3814    1.2257 H   0  0  0  0  0  0  0  0  0  0  0  0
   -1.5607    2.3447    0.5729 H   0  0  0  0  0  0  0  0  0  0  0  0
    1.6581    0.5901    1.0551 H   0  0  0  0  0  0  0  0  0  0  0  0
  1  3  1  0
  1  4  1  0
  1  8  1  0
  1  9  1  0
  2  3  2  0
  2  5  1  0
  2 12  1  0
  3  6  1  0
  4  5  1  0
  6 11  1  0
  7 10  1  0
M  END
