OC1=COOC1.[H][H]_13
     RDKit          3D

 12 11  0  0  0  0  0  0  0  0999 V2000
   -1.2236    0.8344    0.6648 C   0  0  0  0  0  0  0  0  0  0  0  0
    0.3802    1.1808    2.2595 C   0  0  0  0  0  0  0  0  0  0  0  0
   -0.9431    1.0171    2.1189 C   0  0  0  0  0  0  0  0  0  0  0  0
    0.0067    0.9048   -0.0083 O   0  0  0  0  0  0  0  0  0  0  0  0
    1.0258    1.1270    1.0362 O   0  0  0  0  0  0  0  0  0  0  0  0
   -1.8605    1.0214    3.1524 O   0  0  0  0  0  0  0  0  0  0  0  0
    2.6415   -0.1057   -1.4716 H   0  0  0  0  0  0  0  0  0  0  0  0
   -1.8714    1.6283    0.2726 H   0  0  0  0  0  0  0  0  0  0  0  0
   -1.6689   -0.1466    0.4568 H   0  0  0  0  0  0  0  0  0  0  0  0
    2.1754    0.2745   -0.9801 H   0  0  0  0  0  0  0  0  0  0  0  0
   -2.7673    0.8848    2.8034 H   0  0  0  0  0  0  0  0  0  0  0  0
    0.8802    1.3351    3.2029 H   0  0  0  0  0  0  0  0  0  0  0  0
  1  3  1  0
  1  4  1  0
  1  8  1  0
  1  9  1  0
  2  3  2  0
  2  5  1  0
  2 12  1  0
  3  6  1  0
  4  5  1  0
  6 11  1  0
  7 10  1  0
M  END
