OC1=COOC1.[H][H]_5
     RDKit          3D

 12 11  0  0  0  0  0  0  0  0999 V2000
   -0.7597   -0.1045    0.5402 C   0  0  0  0  0  0  0  0  0  0  0  0
    0.0957    0.2522    2.6323 C   0  0  0  0  0  0  0  0  0  0  0  0
   -0.4602    0.9006    1.5996 C   0  0  0  0  0  0  0  0  0  0  0  0
   -0.3507   -1.3563    1.0267 O   0  0  0  0  0  0  0  0  0  0  0  0
    0.2010   -1.1038    2.3727 O   0  0  0  0  0  0  0  0  0  0  0  0
   -0.7203    2.2528    1.5071 O   0  0  0  0  0  0  0  0  0  0  0  0
    0.3910    3.1148   -0.6975 H   0  0  0  0  0  0  0  0  0  0  0  0
   -0.2037    0.1051   -0.3826 H   0  0  0  0  0  0  0  0  0  0  0  0
   -1.8346   -0.1520    0.3232 H   0  0  0  0  0  0  0  0  0  0  0  0
    0.4405    2.6133   -1.2887 H   0  0  0  0  0  0  0  0  0  0  0  0
   -0.4424    2.7108    2.3288 H   0  0  0  0  0  0  0  0  0  0  0  0
    0.4185    0.7228    3.5459 H   0  0  0  0  0  0  0  0  0  0  0  0
  1  3  1  0
  1  4  1  0
  1  8  1  0
  1  9  1  0
  2  3  2  0
  2  5  1  0
  2 12  1  0
  3  6  1  0
  4  5  1  0
  6 11  1  0
  7 10  1  0
M  END
