OC1=COOC1.[H][H]_16
     RDKit          3D

 12 11  0  0  0  0  0  0  0  0999 V2000
   -0.4950    1.1607    0.7602 C   0  0  0  0  0  0  0  0  0  0  0  0
    0.2407    0.3821    2.7820 C   0  0  0  0  0  0  0  0  0  0  0  0
   -0.8324    0.9321    2.1956 C   0  0  0  0  0  0  0  0  0  0  0  0
    0.8221    0.7138    0.5662 O   0  0  0  0  0  0  0  0  0  0  0  0
    1.2766    0.2156    1.8790 O   0  0  0  0  0  0  0  0  0  0  0  0
   -2.0245    1.2252    2.8301 O   0  0  0  0  0  0  0  0  0  0  0  0
    1.2177    0.2609   -1.8467 H   0  0  0  0  0  0  0  0  0  0  0  0
   -0.5348    2.2252    0.4974 H   0  0  0  0  0  0  0  0  0  0  0  0
   -1.1505    0.5876    0.0927 H   0  0  0  0  0  0  0  0  0  0  0  0
    0.6211    0.5256   -2.2681 H   0  0  0  0  0  0  0  0  0  0  0  0
   -2.6593    1.6215    2.1957 H   0  0  0  0  0  0  0  0  0  0  0  0
    0.2934    0.1055    3.8234 H   0  0  0  0  0  0  0  0  0  0  0  0
  1  3  1  0
  1  4  1  0
  1  8  1  0
  1  9  1  0
  2  3  2  0
  2  5  1  0
  2 12  1  0
  3  6  1  0
  4  5  1  0
  6 11  1  0
  7 10  1  0
M  END
