OC1=COOC1.[H][H]_6
     RDKit          3D

 12 11  0  0  0  0  0  0  0  0999 V2000
   -0.5475    0.9693    0.5811 C   0  0  0  0  0  0  0  0  0  0  0  0
    0.0631    0.5255    2.7413 C   0  0  0  0  0  0  0  0  0  0  0  0
   -0.9346    1.0524    2.0182 C   0  0  0  0  0  0  0  0  0  0  0  0
    0.7202    0.3687    0.5259 O   0  0  0  0  0  0  0  0  0  0  0  0
    1.0951    0.0910    1.9267 O   0  0  0  0  0  0  0  0  0  0  0  0
   -2.1175    1.5830    2.4913 O   0  0  0  0  0  0  0  0  0  0  0  0
    0.8728    0.6923   -2.3167 H   0  0  0  0  0  0  0  0  0  0  0  0
   -0.4785    1.9653    0.1251 H   0  0  0  0  0  0  0  0  0  0  0  0
   -1.2497    0.3478    0.0107 H   0  0  0  0  0  0  0  0  0  0  0  0
    1.4370    0.3822   -1.8819 H   0  0  0  0  0  0  0  0  0  0  0  0
   -2.1489    1.5287    3.4702 H   0  0  0  0  0  0  0  0  0  0  0  0
    0.0636    0.4494    3.8157 H   0  0  0  0  0  0  0  0  0  0  0  0
  1  3  1  0
  1  4  1  0
  1  8  1  0
  1  9  1  0
  2  3  2  0
  2  5  1  0
  2 12  1  0
  3  6  1  0
  4  5  1  0
  6 11  1  0
  7 10  1  0
M  END
