OC1=COOC1.[H][H]_11
     RDKit          3D

 12 11  0  0  0  0  0  0  0  0999 V2000
   -1.2088    0.0327    0.7622 C   0  0  0  0  0  0  0  0  0  0  0  0
    0.5775    0.4142    2.1402 C   0  0  0  0  0  0  0  0  0  0  0  0
   -0.5286    1.0056    1.6663 C   0  0  0  0  0  0  0  0  0  0  0  0
   -0.4307   -1.1362    0.7479 O   0  0  0  0  0  0  0  0  0  0  0  0
    0.7130   -0.8703    1.6421 O   0  0  0  0  0  0  0  0  0  0  0  0
   -0.9405    2.2882    1.9744 O   0  0  0  0  0  0  0  0  0  0  0  0
    1.1082    2.1403   -0.5911 H   0  0  0  0  0  0  0  0  0  0  0  0
   -2.2097   -0.2297    1.1271 H   0  0  0  0  0  0  0  0  0  0  0  0
   -1.2744    0.4100   -0.2660 H   0  0  0  0  0  0  0  0  0  0  0  0
    1.4690    2.5231   -0.0193 H   0  0  0  0  0  0  0  0  0  0  0  0
   -1.7744    2.5004    1.5030 H   0  0  0  0  0  0  0  0  0  0  0  0
    1.2745    0.8775    2.8209 H   0  0  0  0  0  0  0  0  0  0  0  0
  1  3  1  0
  1  4  1  0
  1  8  1  0
  1  9  1  0
  2  3  2  0
  2  5  1  0
  2 12  1  0
  3  6  1  0
  4  5  1  0
  6 11  1  0
  7 10  1  0
M  END
