OC1=COOC1.[H][H]_10
     RDKit          3D

 12 11  0  0  0  0  0  0  0  0999 V2000
   -1.1904    0.0927    0.7205 C   0  0  0  0  0  0  0  0  0  0  0  0
    0.5676    0.4699    2.1356 C   0  0  0  0  0  0  0  0  0  0  0  0
   -0.5851    1.0169    1.7236 C   0  0  0  0  0  0  0  0  0  0  0  0
   -0.3198   -1.0007    0.5837 O   0  0  0  0  0  0  0  0  0  0  0  0
    0.8033   -0.7397    1.5049 O   0  0  0  0  0  0  0  0  0  0  0  0
   -1.0976    2.2220    2.1648 O   0  0  0  0  0  0  0  0  0  0  0  0
    1.1727    1.9904   -0.6346 H   0  0  0  0  0  0  0  0  0  0  0  0
   -1.2942    0.5698   -0.2620 H   0  0  0  0  0  0  0  0  0  0  0  0
   -2.1639   -0.2878    1.0541 H   0  0  0  0  0  0  0  0  0  0  0  0
    1.6033    2.2949   -0.0639 H   0  0  0  0  0  0  0  0  0  0  0  0
   -1.9490    2.4143    1.7168 H   0  0  0  0  0  0  0  0  0  0  0  0
    1.2283    0.9130    2.8642 H   0  0  0  0  0  0  0  0  0  0  0  0
  1  3  1  0
  1  4  1  0
  1  8  1  0
  1  9  1  0
  2  3  2  0
  2  5  1  0
  2 12  1  0
  3  6  1  0
  4  5  1  0
  6 11  1  0
  7 10  1  0
M  END
