OC1=COOC1.[H][H]_8
     RDKit          3D

 12 11  0  0  0  0  0  0  0  0999 V2000
   -1.5703   -0.1519    0.8362 C   0  0  0  0  0  0  0  0  0  0  0  0
    0.1549    1.2332    1.4203 C   0  0  0  0  0  0  0  0  0  0  0  0
   -1.1323    0.9836    1.6969 C   0  0  0  0  0  0  0  0  0  0  0  0
   -0.4666   -0.5332    0.0570 O   0  0  0  0  0  0  0  0  0  0  0  0
    0.6335    0.3702    0.4489 O   0  0  0  0  0  0  0  0  0  0  0  0
   -1.9323    1.6422    2.6085 O   0  0  0  0  0  0  0  0  0  0  0  0
    2.8883    1.1595   -0.2587 H   0  0  0  0  0  0  0  0  0  0  0  0
   -2.3836    0.1452    0.1617 H   0  0  0  0  0  0  0  0  0  0  0  0
   -1.8835   -1.0148    1.4378 H   0  0  0  0  0  0  0  0  0  0  0  0
    3.1510    1.7652    0.1508 H   0  0  0  0  0  0  0  0  0  0  0  0
   -1.4257    2.3524    3.0570 H   0  0  0  0  0  0  0  0  0  0  0  0
    0.7418    2.0041    1.8912 H   0  0  0  0  0  0  0  0  0  0  0  0
  1  3  1  0
  1  4  1  0
  1  8  1  0
  1  9  1  0
  2  3  2  0
  2  5  1  0
  2 12  1  0
  3  6  1  0
  4  5  1  0
  6 11  1  0
  7 10  1  0
M  END
