CNC#C.[H][H]_0
     RDKit          3D

 11  9  0  0  0  0  0  0  0  0999 V2000
   -1.4700    1.0433    0.0168 C   0  0  0  0  0  0  0  0  0  0  0  0
   -0.7963    0.1234    0.9135 N   0  0  0  0  0  0  0  0  0  0  0  0
   -0.5286    0.4704    2.2085 C   0  0  0  0  0  0  0  0  0  0  0  0
   -0.2930    0.7854    3.3574 C   0  0  0  0  0  0  0  0  0  0  0  0
   -1.3720    0.7243   -1.0226 H   0  0  0  0  0  0  0  0  0  0  0  0
   -1.0813   -0.8431    0.7439 H   0  0  0  0  0  0  0  0  0  0  0  0
   -1.0262    2.0353    0.1090 H   0  0  0  0  0  0  0  0  0  0  0  0
   -2.5298    1.1199    0.2658 H   0  0  0  0  0  0  0  0  0  0  0  0
    1.9236    0.8286    0.3853 H   0  0  0  0  0  0  0  0  0  0  0  0
    1.9124    1.5736    0.6061 H   0  0  0  0  0  0  0  0  0  0  0  0
   -0.0852    1.0632    4.3651 H   0  0  0  0  0  0  0  0  0  0  0  0
  1  2  1  0
  1  5  1  0
  1  7  1  0
  1  8  1  0
  2  3  1  0
  2  6  1  0
  3  4  3  0
  4 11  1  0
  9 10  1  0
M  END
