O=CC=O.CO_7
     RDKit          3D

 12 10  0  0  0  0  0  0  0  0999 V2000
   -0.6691    1.2705   -0.7085 C   0  0  0  0  0  0  0  0  0  0  0  0
   -1.4317   -0.3317    3.2011 C   0  0  0  0  0  0  0  0  0  0  0  0
    0.6028    0.9250   -0.0848 C   0  0  0  0  0  0  0  0  0  0  0  0
   -1.7300    1.1156   -0.1790 O   0  0  0  0  0  0  0  0  0  0  0  0
   -2.5591    0.0754    2.4827 O   0  0  0  0  0  0  0  0  0  0  0  0
    0.6958    0.4520    1.0097 O   0  0  0  0  0  0  0  0  0  0  0  0
   -2.2933    0.4257    1.5908 H   0  0  0  0  0  0  0  0  0  0  0  0
    1.5379    1.0916   -0.6100 H   0  0  0  0  0  0  0  0  0  0  0  0
   -0.6968    1.6940   -1.7076 H   0  0  0  0  0  0  0  0  0  0  0  0
   -0.9072   -1.1312    2.6702 H   0  0  0  0  0  0  0  0  0  0  0  0
   -1.7527   -0.7084    4.1747 H   0  0  0  0  0  0  0  0  0  0  0  0
   -0.7517    0.5109    3.3566 H   0  0  0  0  0  0  0  0  0  0  0  0
  1  3  1  0
  1  4  2  0
  1  9  1  0
  2  5  1  0
  2 10  1  0
  2 11  1  0
  2 12  1  0
  3  6  2  0
  3  8  1  0
  5  7  1  0
M  END
