O=CC=O.CO_2
     RDKit          3D

 12 10  0  0  0  0  0  0  0  0999 V2000
   -0.8572    0.5791   -0.7988 C   0  0  0  0  0  0  0  0  0  0  0  0
   -1.6430   -0.1517    2.8143 C   0  0  0  0  0  0  0  0  0  0  0  0
    0.2266    1.1669   -0.0221 C   0  0  0  0  0  0  0  0  0  0  0  0
   -1.7900   -0.0086   -0.3298 O   0  0  0  0  0  0  0  0  0  0  0  0
   -0.4490    0.5763    2.7530 O   0  0  0  0  0  0  0  0  0  0  0  0
    1.1506    1.7503   -0.5129 O   0  0  0  0  0  0  0  0  0  0  0  0
   -0.1041    0.7505    3.6583 H   0  0  0  0  0  0  0  0  0  0  0  0
    0.2274    1.0910    1.0625 H   0  0  0  0  0  0  0  0  0  0  0  0
   -0.8322    0.6716   -1.8793 H   0  0  0  0  0  0  0  0  0  0  0  0
   -1.4803   -1.1172    3.3014 H   0  0  0  0  0  0  0  0  0  0  0  0
   -1.9944   -0.3304    1.7955 H   0  0  0  0  0  0  0  0  0  0  0  0
   -2.4094    0.4117    3.3537 H   0  0  0  0  0  0  0  0  0  0  0  0
  1  3  1  0
  1  4  2  0
  1  9  1  0
  2  5  1  0
  2 10  1  0
  2 11  1  0
  2 12  1  0
  3  6  2  0
  3  8  1  0
  5  7  1  0
M  END
