O=CC=O.CO_6
     RDKit          3D

 12 10  0  0  0  0  0  0  0  0999 V2000
   -0.4078    1.0303   -1.5393 C   0  0  0  0  0  0  0  0  0  0  0  0
   -1.6969   -0.3028    3.5025 C   0  0  0  0  0  0  0  0  0  0  0  0
   -0.1001    1.0225   -0.1170 C   0  0  0  0  0  0  0  0  0  0  0  0
   -1.3882    0.5280   -2.0100 O   0  0  0  0  0  0  0  0  0  0  0  0
   -0.8873    0.2374    2.4990 O   0  0  0  0  0  0  0  0  0  0  0  0
    0.8800    1.5254    0.3560 O   0  0  0  0  0  0  0  0  0  0  0  0
   -0.0797    0.6499    2.8819 H   0  0  0  0  0  0  0  0  0  0  0  0
   -0.7911    0.5356    0.5683 H   0  0  0  0  0  0  0  0  0  0  0  0
    0.2789    1.5141   -2.2253 H   0  0  0  0  0  0  0  0  0  0  0  0
   -1.1594   -1.0802    4.0527 H   0  0  0  0  0  0  0  0  0  0  0  0
   -2.5768   -0.7502    3.0347 H   0  0  0  0  0  0  0  0  0  0  0  0
   -2.0266    0.4793    4.1923 H   0  0  0  0  0  0  0  0  0  0  0  0
  1  3  1  0
  1  4  2  0
  1  9  1  0
  2  5  1  0
  2 10  1  0
  2 11  1  0
  2 12  1  0
  3  6  2  0
  3  8  1  0
  5  7  1  0
M  END
