O=CC=O.CO_9
     RDKit          3D

 12 10  0  0  0  0  0  0  0  0999 V2000
   -0.0856    1.2100   -0.2994 C   0  0  0  0  0  0  0  0  0  0  0  0
   -2.1991   -0.4386    3.6205 C   0  0  0  0  0  0  0  0  0  0  0  0
    0.9720    1.0988   -1.2974 C   0  0  0  0  0  0  0  0  0  0  0  0
   -0.2013    0.4674    0.6310 O   0  0  0  0  0  0  0  0  0  0  0  0
   -2.3293    0.5864    2.6799 O   0  0  0  0  0  0  0  0  0  0  0  0
    1.8200    0.2556   -1.2755 O   0  0  0  0  0  0  0  0  0  0  0  0
   -1.6053    0.5315    1.9999 H   0  0  0  0  0  0  0  0  0  0  0  0
    1.0257    1.8022   -2.1221 H   0  0  0  0  0  0  0  0  0  0  0  0
   -0.8287    1.9980   -0.3714 H   0  0  0  0  0  0  0  0  0  0  0  0
   -3.0083   -0.3483    4.3488 H   0  0  0  0  0  0  0  0  0  0  0  0
   -1.2437   -0.3577    4.1462 H   0  0  0  0  0  0  0  0  0  0  0  0
   -2.2714   -1.4160    3.1355 H   0  0  0  0  0  0  0  0  0  0  0  0
  1  3  1  0
  1  4  2  0
  1  9  1  0
  2  5  1  0
  2 10  1  0
  2 11  1  0
  2 12  1  0
  3  6  2  0
  3  8  1  0
  5  7  1  0
M  END
