O=CC=O.CO
     RDKit          3D

 12 10  0  0  0  0  0  0  0  0999 V2000
   -0.8429    0.6793   -0.6437 C   0  0  0  0  0  0  0  0  0  0  0  0
   -1.6936   -0.1536    2.7882 C   0  0  0  0  0  0  0  0  0  0  0  0
    0.4690    0.9741   -0.0665 C   0  0  0  0  0  0  0  0  0  0  0  0
   -1.2098   -0.5112   -0.8276 O   0  0  0  0  0  0  0  0  0  0  0  0
   -1.3060    1.1894    2.8293 O   0  0  0  0  0  0  0  0  0  0  0  0
    1.2518    0.0420    0.2560 O   0  0  0  0  0  0  0  0  0  0  0  0
   -0.4741    1.2175    3.3695 H   0  0  0  0  0  0  0  0  0  0  0  0
    0.7687    2.0020    0.0870 H   0  0  0  0  0  0  0  0  0  0  0  0
   -1.5051    1.4911   -0.9130 H   0  0  0  0  0  0  0  0  0  0  0  0
   -0.8874   -0.7732    2.3386 H   0  0  0  0  0  0  0  0  0  0  0  0
   -2.6061   -0.2498    2.1646 H   0  0  0  0  0  0  0  0  0  0  0  0
   -1.9195   -0.5182    3.8135 H   0  0  0  0  0  0  0  0  0  0  0  0
  1  3  1  0
  1  4  2  0
  1  9  1  0
  2  5  1  0
  2 10  1  0
  2 11  1  0
  2 12  1  0
  3  6  2  0
  3  8  1  0
  5  7  1  0
M  END
