O=CC=O.CO_1
     RDKit          3D

 12 10  0  0  0  0  0  0  0  0999 V2000
   -0.0593    1.1128   -0.3127 C   0  0  0  0  0  0  0  0  0  0  0  0
   -2.2855   -0.4339    3.5736 C   0  0  0  0  0  0  0  0  0  0  0  0
    1.1492    1.2465   -1.1152 C   0  0  0  0  0  0  0  0  0  0  0  0
   -0.1009    0.5359    0.7366 O   0  0  0  0  0  0  0  0  0  0  0  0
   -2.5402    0.2535    2.3840 O   0  0  0  0  0  0  0  0  0  0  0  0
    1.1922    1.8243   -2.1640 O   0  0  0  0  0  0  0  0  0  0  0  0
   -1.7104    0.3387    1.8419 H   0  0  0  0  0  0  0  0  0  0  0  0
    2.0738    0.8035   -0.7581 H   0  0  0  0  0  0  0  0  0  0  0  0
   -0.9844    1.5551   -0.6707 H   0  0  0  0  0  0  0  0  0  0  0  0
   -1.9228   -1.4439    3.3634 H   0  0  0  0  0  0  0  0  0  0  0  0
   -3.2170   -0.5071    4.1392 H   0  0  0  0  0  0  0  0  0  0  0  0
   -1.5499    0.1040    4.1780 H   0  0  0  0  0  0  0  0  0  0  0  0
  1  3  1  0
  1  4  2  0
  1  9  1  0
  2  5  1  0
  2 10  1  0
  2 11  1  0
  2 12  1  0
  3  6  2  0
  3  8  1  0
  5  7  1  0
M  END
