O=CC=O.CO_4
     RDKit          3D

 12 10  0  0  0  0  0  0  0  0999 V2000
   -0.2565    1.1743   -1.5533 C   0  0  0  0  0  0  0  0  0  0  0  0
   -1.6545   -0.2856    3.6113 C   0  0  0  0  0  0  0  0  0  0  0  0
   -0.2395    0.9328   -0.1184 C   0  0  0  0  0  0  0  0  0  0  0  0
   -1.1006    0.7451   -2.2871 O   0  0  0  0  0  0  0  0  0  0  0  0
   -1.1081   -0.0409    2.3485 O   0  0  0  0  0  0  0  0  0  0  0  0
    0.5991    1.3600    0.6247 O   0  0  0  0  0  0  0  0  0  0  0  0
   -0.2652    0.4723    2.4218 H   0  0  0  0  0  0  0  0  0  0  0  0
   -1.0304    0.3293    0.3234 H   0  0  0  0  0  0  0  0  0  0  0  0
    0.5301    1.7739   -1.9989 H   0  0  0  0  0  0  0  0  0  0  0  0
   -0.9627   -0.8730    4.2216 H   0  0  0  0  0  0  0  0  0  0  0  0
   -2.5786   -0.8541    3.4849 H   0  0  0  0  0  0  0  0  0  0  0  0
   -1.8881    0.6552    4.1175 H   0  0  0  0  0  0  0  0  0  0  0  0
  1  3  1  0
  1  4  2  0
  1  9  1  0
  2  5  1  0
  2 10  1  0
  2 11  1  0
  2 12  1  0
  3  6  2  0
  3  8  1  0
  5  7  1  0
M  END
