O=CC=O.CO_8
     RDKit          3D

 12 10  0  0  0  0  0  0  0  0999 V2000
   -0.9041    0.8172   -0.5758 C   0  0  0  0  0  0  0  0  0  0  0  0
   -1.5086   -0.1618    2.9158 C   0  0  0  0  0  0  0  0  0  0  0  0
    0.4536    0.5893   -0.1026 C   0  0  0  0  0  0  0  0  0  0  0  0
   -1.2509    0.7844   -1.7199 O   0  0  0  0  0  0  0  0  0  0  0  0
   -1.0862    1.0034    2.2649 O   0  0  0  0  0  0  0  0  0  0  0  0
    1.3942    0.3408   -0.7981 O   0  0  0  0  0  0  0  0  0  0  0  0
   -1.1669    1.7812    2.8619 H   0  0  0  0  0  0  0  0  0  0  0  0
    0.6497    0.6398    0.9627 H   0  0  0  0  0  0  0  0  0  0  0  0
   -1.6803    1.0308    0.1506 H   0  0  0  0  0  0  0  0  0  0  0  0
   -0.8911   -0.3534    3.7980 H   0  0  0  0  0  0  0  0  0  0  0  0
   -1.4059   -1.0050    2.2287 H   0  0  0  0  0  0  0  0  0  0  0  0
   -2.5586   -0.0774    3.2100 H   0  0  0  0  0  0  0  0  0  0  0  0
  1  3  1  0
  1  4  2  0
  1  9  1  0
  2  5  1  0
  2 10  1  0
  2 11  1  0
  2 12  1  0
  3  6  2  0
  3  8  1  0
  5  7  1  0
M  END
