OCOC(=C)O_2
     RDKit          3D

 12 11  0  0  0  0  0  0  0  0999 V2000
    0.4232    1.5898    1.2433 C   0  0  0  0  0  0  0  0  0  0  0  0
   -0.6416   -0.9007   -1.1086 C   0  0  0  0  0  0  0  0  0  0  0  0
    0.0485   -0.3030   -0.1167 C   0  0  0  0  0  0  0  0  0  0  0  0
    1.7206    1.2525    1.6759 O   0  0  0  0  0  0  0  0  0  0  0  0
    0.7930   -1.0698    0.7391 O   0  0  0  0  0  0  0  0  0  0  0  0
   -0.0101    1.0782   -0.0049 O   0  0  0  0  0  0  0  0  0  0  0  0
    1.3301   -0.4489    1.2687 H   0  0  0  0  0  0  0  0  0  0  0  0
    0.3528    2.6818    1.1591 H   0  0  0  0  0  0  0  0  0  0  0  0
   -0.3017    1.2633    1.9989 H   0  0  0  0  0  0  0  0  0  0  0  0
    1.9841    1.7721    2.4674 H   0  0  0  0  0  0  0  0  0  0  0  0
   -0.6096   -1.9641   -1.2236 H   0  0  0  0  0  0  0  0  0  0  0  0
   -1.2233   -0.3192   -1.7936 H   0  0  0  0  0  0  0  0  0  0  0  0
  1  4  1  0
  1  6  1  0
  1  8  1  0
  1  9  1  0
  2  3  2  0
  2 11  1  0
  2 12  1  0
  3  5  1  0
  3  6  1  0
  4 10  1  0
  5  7  1  0
M  END
