OCOC(=C)O_4
     RDKit          3D

 12 11  0  0  0  0  0  0  0  0999 V2000
    0.7287    1.4348    1.5104 C   0  0  0  0  0  0  0  0  0  0  0  0
   -0.6459   -0.9609   -0.7182 C   0  0  0  0  0  0  0  0  0  0  0  0
    0.1995   -0.1357   -0.0692 C   0  0  0  0  0  0  0  0  0  0  0  0
    0.3261    2.2984    2.5421 O   0  0  0  0  0  0  0  0  0  0  0  0
    1.5219   -0.0620   -0.4368 O   0  0  0  0  0  0  0  0  0  0  0  0
   -0.2913    0.6325    0.9707 O   0  0  0  0  0  0  0  0  0  0  0  0
    1.7077   -0.6635   -1.1900 H   0  0  0  0  0  0  0  0  0  0  0  0
    1.5193    0.7714    1.8867 H   0  0  0  0  0  0  0  0  0  0  0  0
    1.1520    2.0442    0.7012 H   0  0  0  0  0  0  0  0  0  0  0  0
   -0.3741    1.8580    3.0669 H   0  0  0  0  0  0  0  0  0  0  0  0
   -0.3027   -1.5698   -1.5277 H   0  0  0  0  0  0  0  0  0  0  0  0
   -1.6750   -1.0153   -0.4313 H   0  0  0  0  0  0  0  0  0  0  0  0
  1  4  1  0
  1  6  1  0
  1  8  1  0
  1  9  1  0
  2  3  2  0
  2 11  1  0
  2 12  1  0
  3  5  1  0
  3  6  1  0
  4 10  1  0
  5  7  1  0
M  END
