OCOC(=C)O_1
     RDKit          3D

 12 11  0  0  0  0  0  0  0  0999 V2000
    0.3452    1.8979    1.2542 C   0  0  0  0  0  0  0  0  0  0  0  0
   -0.5270   -0.9068   -0.7594 C   0  0  0  0  0  0  0  0  0  0  0  0
    0.1377   -0.0679    0.0613 C   0  0  0  0  0  0  0  0  0  0  0  0
    0.7564    1.3046    2.4498 O   0  0  0  0  0  0  0  0  0  0  0  0
    1.3945   -0.3940    0.5103 O   0  0  0  0  0  0  0  0  0  0  0  0
   -0.4801    1.1122    0.4308 O   0  0  0  0  0  0  0  0  0  0  0  0
    1.6916   -1.2429    0.1176 H   0  0  0  0  0  0  0  0  0  0  0  0
    1.2299    2.1907    0.6728 H   0  0  0  0  0  0  0  0  0  0  0  0
   -0.2115    2.8083    1.5090 H   0  0  0  0  0  0  0  0  0  0  0  0
    1.1261    0.4211    2.2387 H   0  0  0  0  0  0  0  0  0  0  0  0
   -0.0896   -1.8322   -1.0701 H   0  0  0  0  0  0  0  0  0  0  0  0
   -1.5070   -0.6590   -1.1099 H   0  0  0  0  0  0  0  0  0  0  0  0
  1  4  1  0
  1  6  1  0
  1  8  1  0
  1  9  1  0
  2  3  2  0
  2 11  1  0
  2 12  1  0
  3  5  1  0
  3  6  1  0
  4 10  1  0
  5  7  1  0
M  END
