OCOC(=C)O
     RDKit          3D

 12 11  0  0  0  0  0  0  0  0999 V2000
    0.4503    1.6760    1.2653 C   0  0  0  0  0  0  0  0  0  0  0  0
   -0.7551   -0.9894   -0.9693 C   0  0  0  0  0  0  0  0  0  0  0  0
    0.0800   -0.3183   -0.1856 C   0  0  0  0  0  0  0  0  0  0  0  0
    0.6752    0.9810    2.4599 O   0  0  0  0  0  0  0  0  0  0  0  0
    1.3589   -0.8309    0.0385 O   0  0  0  0  0  0  0  0  0  0  0  0
   -0.3474    0.8853    0.3909 O   0  0  0  0  0  0  0  0  0  0  0  0
    2.0395   -0.3606    0.6202 H   0  0  0  0  0  0  0  0  0  0  0  0
    1.4144    1.9327    0.7722 H   0  0  0  0  0  0  0  0  0  0  0  0
   -0.0955    2.6194    1.4831 H   0  0  0  0  0  0  0  0  0  0  0  0
    1.2472    1.5707    3.0165 H   0  0  0  0  0  0  0  0  0  0  0  0
   -0.4493   -1.9213   -1.4275 H   0  0  0  0  0  0  0  0  0  0  0  0
   -1.7520   -0.6126   -1.1593 H   0  0  0  0  0  0  0  0  0  0  0  0
  1  4  1  0
  1  6  1  0
  1  8  1  0
  1  9  1  0
  2  3  2  0
  2 11  1  0
  2 12  1  0
  3  5  1  0
  3  6  1  0
  4 10  1  0
  5  7  1  0
M  END
