CC=O.O=C=O.[H][H]_12
     RDKit          3D

 12  9  0  0  0  0  0  0  0  0999 V2000
    0.0080    1.4629    1.0126 C   0  0  0  0  0  0  0  0  0  0  0  0
    0.6672    0.1431    0.9438 C   0  0  0  0  0  0  0  0  0  0  0  0
   -3.6365    1.6295    2.5021 C   0  0  0  0  0  0  0  0  0  0  0  0
   -1.0248    1.6665    1.5762 O   0  0  0  0  0  0  0  0  0  0  0  0
   -4.0270    1.6396    1.4097 O   0  0  0  0  0  0  0  0  0  0  0  0
   -3.2822    1.6150    3.6068 O   0  0  0  0  0  0  0  0  0  0  0  0
    0.8588   -0.2327    1.9501 H   0  0  0  0  0  0  0  0  0  0  0  0
   -2.1357    0.5742   -1.0377 H   0  0  0  0  0  0  0  0  0  0  0  0
    0.4568    2.3215    0.5254 H   0  0  0  0  0  0  0  0  0  0  0  0
   -2.5340    1.0069   -0.5301 H   0  0  0  0  0  0  0  0  0  0  0  0
    0.0185   -0.5758    0.4409 H   0  0  0  0  0  0  0  0  0  0  0  0
    1.6168    0.1823    0.4063 H   0  0  0  0  0  0  0  0  0  0  0  0
  1  2  1  0
  1  4  2  0
  1  9  1  0
  2  7  1  0
  2 11  1  0
  2 12  1  0
  3  5  2  0
  3  6  2  0
  8 10  1  0
M  END
