CC=O.O=C=O.[H][H]_0
     RDKit          3D

 12  9  0  0  0  0  0  0  0  0999 V2000
   -0.3226   -0.0713    0.3644 C   0  0  0  0  0  0  0  0  0  0  0  0
    0.4182    0.6047    1.4492 C   0  0  0  0  0  0  0  0  0  0  0  0
   -3.2832    1.1429    1.9687 C   0  0  0  0  0  0  0  0  0  0  0  0
   -1.4495    0.1843    0.0614 O   0  0  0  0  0  0  0  0  0  0  0  0
   -4.2217    1.1246    1.2869 O   0  0  0  0  0  0  0  0  0  0  0  0
   -2.3640    1.1735    2.6755 O   0  0  0  0  0  0  0  0  0  0  0  0
   -0.1932    0.6362    2.3527 H   0  0  0  0  0  0  0  0  0  0  0  0
   -1.9491    2.6350   -0.2915 H   0  0  0  0  0  0  0  0  0  0  0  0
    0.1689   -0.8259   -0.2392 H   0  0  0  0  0  0  0  0  0  0  0  0
   -1.8180    3.0960    0.3200 H   0  0  0  0  0  0  0  0  0  0  0  0
    1.3555    0.0982    1.6882 H   0  0  0  0  0  0  0  0  0  0  0  0
    0.6448    1.6348    1.1699 H   0  0  0  0  0  0  0  0  0  0  0  0
  1  2  1  0
  1  4  2  0
  1  9  1  0
  2  7  1  0
  2 11  1  0
  2 12  1  0
  3  5  2  0
  3  6  2  0
  8 10  1  0
M  END
