CC=O.O=C=O.[H][H]_18
     RDKit          3D

 12  9  0  0  0  0  0  0  0  0999 V2000
   -0.6937    0.5488    0.3371 C   0  0  0  0  0  0  0  0  0  0  0  0
    0.4550    0.8334    1.2197 C   0  0  0  0  0  0  0  0  0  0  0  0
   -3.7403   -0.0744    2.9794 C   0  0  0  0  0  0  0  0  0  0  0  0
   -0.6446    0.5326   -0.8559 O   0  0  0  0  0  0  0  0  0  0  0  0
   -2.6695    0.1543    2.5970 O   0  0  0  0  0  0  0  0  0  0  0  0
   -4.8108   -0.3030    3.3640 O   0  0  0  0  0  0  0  0  0  0  0  0
    0.8557    1.8260    1.0084 H   0  0  0  0  0  0  0  0  0  0  0  0
   -0.7384    3.5986   -0.6777 H   0  0  0  0  0  0  0  0  0  0  0  0
   -1.6662    0.3371    0.7651 H   0  0  0  0  0  0  0  0  0  0  0  0
   -0.7955    3.0774   -1.2509 H   0  0  0  0  0  0  0  0  0  0  0  0
    0.1815    0.7921    2.2760 H   0  0  0  0  0  0  0  0  0  0  0  0
    1.2527    0.1101    1.0440 H   0  0  0  0  0  0  0  0  0  0  0  0
  1  2  1  0
  1  4  2  0
  1  9  1  0
  2  7  1  0
  2 11  1  0
  2 12  1  0
  3  5  2  0
  3  6  2  0
  8 10  1  0
M  END
