CC=O.O=C=O.[H][H]_6
     RDKit          3D

 12  9  0  0  0  0  0  0  0  0999 V2000
    0.0942   -0.6505    0.5623 C   0  0  0  0  0  0  0  0  0  0  0  0
    0.7878    0.2276    1.5267 C   0  0  0  0  0  0  0  0  0  0  0  0
   -2.4178    1.8911    0.4081 C   0  0  0  0  0  0  0  0  0  0  0  0
   -1.0674   -0.5682    0.2959 O   0  0  0  0  0  0  0  0  0  0  0  0
   -3.4118    1.5348   -0.0727 O   0  0  0  0  0  0  0  0  0  0  0  0
   -1.4377    2.2792    0.8919 O   0  0  0  0  0  0  0  0  0  0  0  0
    0.5548    1.2721    1.3123 H   0  0  0  0  0  0  0  0  0  0  0  0
   -4.8643    3.2052    1.7883 H   0  0  0  0  0  0  0  0  0  0  0  0
    0.6351   -1.4528    0.0730 H   0  0  0  0  0  0  0  0  0  0  0  0
   -4.2082    3.5718    1.9851 H   0  0  0  0  0  0  0  0  0  0  0  0
    0.4489    0.0177    2.5424 H   0  0  0  0  0  0  0  0  0  0  0  0
    1.8722    0.1050    1.4928 H   0  0  0  0  0  0  0  0  0  0  0  0
  1  2  1  0
  1  4  2  0
  1  9  1  0
  2  7  1  0
  2 11  1  0
  2 12  1  0
  3  5  2  0
  3  6  2  0
  8 10  1  0
M  END
