CC=O.O=C=O.[H][H]_13
     RDKit          3D

 12  9  0  0  0  0  0  0  0  0999 V2000
    0.1616    1.6035    1.2741 C   0  0  0  0  0  0  0  0  0  0  0  0
    0.5714    0.2405    0.8820 C   0  0  0  0  0  0  0  0  0  0  0  0
   -3.7348    1.0937    2.3316 C   0  0  0  0  0  0  0  0  0  0  0  0
    0.8541    2.5721    1.1847 O   0  0  0  0  0  0  0  0  0  0  0  0
   -4.8273    1.3840    2.5930 O   0  0  0  0  0  0  0  0  0  0  0  0
   -2.6434    0.8015    2.0698 O   0  0  0  0  0  0  0  0  0  0  0  0
    1.4602   -0.0596    1.4391 H   0  0  0  0  0  0  0  0  0  0  0  0
   -2.1972    1.5096   -0.8537 H   0  0  0  0  0  0  0  0  0  0  0  0
   -0.8320    1.7776    1.6694 H   0  0  0  0  0  0  0  0  0  0  0  0
   -2.4334    0.7918   -0.6727 H   0  0  0  0  0  0  0  0  0  0  0  0
   -0.2143   -0.4945    1.0687 H   0  0  0  0  0  0  0  0  0  0  0  0
    0.8211    0.2130   -0.1798 H   0  0  0  0  0  0  0  0  0  0  0  0
  1  2  1  0
  1  4  2  0
  1  9  1  0
  2  7  1  0
  2 11  1  0
  2 12  1  0
  3  5  2  0
  3  6  2  0
  8 10  1  0
M  END
