CC=O.O=C=O.[H][H]
     RDKit          3D

 12  9  0  0  0  0  0  0  0  0999 V2000
   -0.2686    0.1626    0.1184 C   0  0  0  0  0  0  0  0  0  0  0  0
    0.3527    0.6151    1.3985 C   0  0  0  0  0  0  0  0  0  0  0  0
   -3.1840    0.8945    2.2839 C   0  0  0  0  0  0  0  0  0  0  0  0
    0.0262    0.7076   -0.9327 O   0  0  0  0  0  0  0  0  0  0  0  0
   -3.6847    0.1425    1.4383 O   0  0  0  0  0  0  0  0  0  0  0  0
   -2.6825    1.6466    3.1289 O   0  0  0  0  0  0  0  0  0  0  0  0
    0.1043    1.6817    1.5796 H   0  0  0  0  0  0  0  0  0  0  0  0
   -2.2493    2.6745   -0.1819 H   0  0  0  0  0  0  0  0  0  0  0  0
   -0.9854   -0.6521    0.1190 H   0  0  0  0  0  0  0  0  0  0  0  0
   -1.8627    3.0578    0.2707 H   0  0  0  0  0  0  0  0  0  0  0  0
   -0.0352    0.0049    2.2407 H   0  0  0  0  0  0  0  0  0  0  0  0
    1.4551    0.4973    1.3428 H   0  0  0  0  0  0  0  0  0  0  0  0
  1  2  1  0
  1  4  2  0
  1  9  1  0
  2  7  1  0
  2 11  1  0
  2 12  1  0
  3  5  2  0
  3  6  2  0
  8 10  1  0
M  END
