CC=O.O=C=O.[H][H]_15
     RDKit          3D

 12  9  0  0  0  0  0  0  0  0999 V2000
   -0.0681    0.6184    0.3706 C   0  0  0  0  0  0  0  0  0  0  0  0
    0.9090    0.5214    1.4729 C   0  0  0  0  0  0  0  0  0  0  0  0
   -3.7052    0.7026    2.1225 C   0  0  0  0  0  0  0  0  0  0  0  0
    0.2194    0.7367   -0.7823 O   0  0  0  0  0  0  0  0  0  0  0  0
   -4.8542    0.8630    2.1435 O   0  0  0  0  0  0  0  0  0  0  0  0
   -2.5568    0.5419    2.1040 O   0  0  0  0  0  0  0  0  0  0  0  0
    1.5362    1.4138    1.4996 H   0  0  0  0  0  0  0  0  0  0  0  0
   -2.4479    2.7323   -0.5487 H   0  0  0  0  0  0  0  0  0  0  0  0
   -1.1298    0.5855    0.5832 H   0  0  0  0  0  0  0  0  0  0  0  0
   -2.9026    2.6409    0.0748 H   0  0  0  0  0  0  0  0  0  0  0  0
    0.4227    0.4150    2.4449 H   0  0  0  0  0  0  0  0  0  0  0  0
    1.5631   -0.3386    1.3213 H   0  0  0  0  0  0  0  0  0  0  0  0
  1  2  1  0
  1  4  2  0
  1  9  1  0
  2  7  1  0
  2 11  1  0
  2 12  1  0
  3  5  2  0
  3  6  2  0
  8 10  1  0
M  END
