CC=O.O=C=O.[H][H]_5
     RDKit          3D

 12  9  0  0  0  0  0  0  0  0999 V2000
    0.0318   -0.6989    1.5199 C   0  0  0  0  0  0  0  0  0  0  0  0
    0.6437    0.3447    0.6720 C   0  0  0  0  0  0  0  0  0  0  0  0
   -2.9842    1.2158    1.2235 C   0  0  0  0  0  0  0  0  0  0  0  0
   -1.1456   -0.8678    1.6304 O   0  0  0  0  0  0  0  0  0  0  0  0
   -2.0546    1.8135    0.8714 O   0  0  0  0  0  0  0  0  0  0  0  0
   -3.9339    0.6460    1.5692 O   0  0  0  0  0  0  0  0  0  0  0  0
    1.7149    0.4515    0.8549 H   0  0  0  0  0  0  0  0  0  0  0  0
   -3.6477    4.1429    1.1072 H   0  0  0  0  0  0  0  0  0  0  0  0
    0.6616   -1.3962    2.0608 H   0  0  0  0  0  0  0  0  0  0  0  0
   -2.9621    4.3633    0.8155 H   0  0  0  0  0  0  0  0  0  0  0  0
    0.4958    0.1111   -0.3835 H   0  0  0  0  0  0  0  0  0  0  0  0
    0.1662    1.3070    0.8647 H   0  0  0  0  0  0  0  0  0  0  0  0
  1  2  1  0
  1  4  2  0
  1  9  1  0
  2  7  1  0
  2 11  1  0
  2 12  1  0
  3  5  2  0
  3  6  2  0
  8 10  1  0
M  END
