CC=O.O=C=O.[H][H]_10
     RDKit          3D

 12  9  0  0  0  0  0  0  0  0999 V2000
   -0.3462    0.4428    1.5844 C   0  0  0  0  0  0  0  0  0  0  0  0
    0.6370    0.6757    0.5074 C   0  0  0  0  0  0  0  0  0  0  0  0
   -3.7801    0.3361    1.6865 C   0  0  0  0  0  0  0  0  0  0  0  0
   -1.0867   -0.4935    1.6258 O   0  0  0  0  0  0  0  0  0  0  0  0
   -3.3277    1.4038    1.6539 O   0  0  0  0  0  0  0  0  0  0  0  0
   -4.2629   -0.7184    1.7183 O   0  0  0  0  0  0  0  0  0  0  0  0
    0.1251    0.8145   -0.4462 H   0  0  0  0  0  0  0  0  0  0  0  0
   -1.9104    3.1625    0.5818 H   0  0  0  0  0  0  0  0  0  0  0  0
   -0.4470    1.1590    2.3926 H   0  0  0  0  0  0  0  0  0  0  0  0
   -1.1652    3.2847    0.3991 H   0  0  0  0  0  0  0  0  0  0  0  0
    1.2560    1.5554    0.6956 H   0  0  0  0  0  0  0  0  0  0  0  0
    1.2939   -0.1896    0.4069 H   0  0  0  0  0  0  0  0  0  0  0  0
  1  2  1  0
  1  4  2  0
  1  9  1  0
  2  7  1  0
  2 11  1  0
  2 12  1  0
  3  5  2  0
  3  6  2  0
  8 10  1  0
M  END
