CC=O.O=C=O.[H][H]_19
     RDKit          3D

 12  9  0  0  0  0  0  0  0  0999 V2000
    0.0977    0.4562   -0.1478 C   0  0  0  0  0  0  0  0  0  0  0  0
   -0.3723    0.8201    1.2033 C   0  0  0  0  0  0  0  0  0  0  0  0
   -3.6337   -0.0504    3.6165 C   0  0  0  0  0  0  0  0  0  0  0  0
   -0.5241    0.6571   -1.1477 O   0  0  0  0  0  0  0  0  0  0  0  0
   -4.6464   -0.2903    4.1293 O   0  0  0  0  0  0  0  0  0  0  0  0
   -2.6207    0.1896    3.1055 O   0  0  0  0  0  0  0  0  0  0  0  0
   -0.3416    1.9020    1.3408 H   0  0  0  0  0  0  0  0  0  0  0  0
   -0.5295    3.1667   -1.4294 H   0  0  0  0  0  0  0  0  0  0  0  0
    1.0799    0.0171   -0.2800 H   0  0  0  0  0  0  0  0  0  0  0  0
   -0.3410    3.7084   -0.9054 H   0  0  0  0  0  0  0  0  0  0  0  0
   -1.4079    0.5012    1.3311 H   0  0  0  0  0  0  0  0  0  0  0  0
    0.2256    0.3554    1.9899 H   0  0  0  0  0  0  0  0  0  0  0  0
  1  2  1  0
  1  4  2  0
  1  9  1  0
  2  7  1  0
  2 11  1  0
  2 12  1  0
  3  5  2  0
  3  6  2  0
  8 10  1  0
M  END
