CC=O.O=C=O.[H][H]_7
     RDKit          3D

 12  9  0  0  0  0  0  0  0  0999 V2000
   -0.4528    0.3076    1.1769 C   0  0  0  0  0  0  0  0  0  0  0  0
    0.9718    0.6714    1.0411 C   0  0  0  0  0  0  0  0  0  0  0  0
   -3.8309    0.6463    1.3765 C   0  0  0  0  0  0  0  0  0  0  0  0
   -1.2377    0.3196    0.2764 O   0  0  0  0  0  0  0  0  0  0  0  0
   -4.4165    0.7954    0.3860 O   0  0  0  0  0  0  0  0  0  0  0  0
   -3.2715    0.5022    2.3825 O   0  0  0  0  0  0  0  0  0  0  0  0
    1.0664    1.7122    0.7275 H   0  0  0  0  0  0  0  0  0  0  0  0
   -1.9729    3.0766    0.8800 H   0  0  0  0  0  0  0  0  0  0  0  0
   -0.8531    0.0251    2.1450 H   0  0  0  0  0  0  0  0  0  0  0  0
   -1.9844    2.7813    0.1615 H   0  0  0  0  0  0  0  0  0  0  0  0
    1.5223    0.5432    1.9753 H   0  0  0  0  0  0  0  0  0  0  0  0
    1.4451    0.0522    0.2774 H   0  0  0  0  0  0  0  0  0  0  0  0
  1  2  1  0
  1  4  2  0
  1  9  1  0
  2  7  1  0
  2 11  1  0
  2 12  1  0
  3  5  2  0
  3  6  2  0
  8 10  1  0
M  END
