CC=O.O=C=O.[H][H]_4
     RDKit          3D

 12  9  0  0  0  0  0  0  0  0999 V2000
   -0.0629   -0.8217    1.0177 C   0  0  0  0  0  0  0  0  0  0  0  0
    0.6915    0.4255    1.2582 C   0  0  0  0  0  0  0  0  0  0  0  0
   -2.9445    1.2644    0.6683 C   0  0  0  0  0  0  0  0  0  0  0  0
   -1.2471   -0.9224    1.1371 O   0  0  0  0  0  0  0  0  0  0  0  0
   -3.9495    0.6883    0.7331 O   0  0  0  0  0  0  0  0  0  0  0  0
   -1.9578    1.8700    0.5979 O   0  0  0  0  0  0  0  0  0  0  0  0
    0.6816    0.6757    2.3202 H   0  0  0  0  0  0  0  0  0  0  0  0
   -3.6800    4.0573    1.4032 H   0  0  0  0  0  0  0  0  0  0  0  0
    0.4633   -1.7301    0.7465 H   0  0  0  0  0  0  0  0  0  0  0  0
   -2.9620    4.3227    1.2708 H   0  0  0  0  0  0  0  0  0  0  0  0
    1.7306    0.3507    0.9313 H   0  0  0  0  0  0  0  0  0  0  0  0
    0.2229    1.2526    0.7218 H   0  0  0  0  0  0  0  0  0  0  0  0
  1  2  1  0
  1  4  2  0
  1  9  1  0
  2  7  1  0
  2 11  1  0
  2 12  1  0
  3  5  2  0
  3  6  2  0
  8 10  1  0
M  END
