CC=O.O=C=O.[H][H]_2
     RDKit          3D

 12  9  0  0  0  0  0  0  0  0999 V2000
   -0.1959   -0.5350    0.6303 C   0  0  0  0  0  0  0  0  0  0  0  0
    0.3462    0.7598    1.0907 C   0  0  0  0  0  0  0  0  0  0  0  0
   -3.3775    0.6836    1.7438 C   0  0  0  0  0  0  0  0  0  0  0  0
   -1.2517   -0.9785    0.9700 O   0  0  0  0  0  0  0  0  0  0  0  0
   -4.1893   -0.1422    1.8166 O   0  0  0  0  0  0  0  0  0  0  0  0
   -2.5899    1.5326    1.6803 O   0  0  0  0  0  0  0  0  0  0  0  0
    0.6270    0.7012    2.1434 H   0  0  0  0  0  0  0  0  0  0  0  0
   -1.5013    4.0152    0.3643 H   0  0  0  0  0  0  0  0  0  0  0  0
    0.3916   -1.1656   -0.0274 H   0  0  0  0  0  0  0  0  0  0  0  0
   -2.0791    3.9569    0.8804 H   0  0  0  0  0  0  0  0  0  0  0  0
    1.2217    1.0698    0.5166 H   0  0  0  0  0  0  0  0  0  0  0  0
   -0.4160    1.5352    0.9973 H   0  0  0  0  0  0  0  0  0  0  0  0
  1  2  1  0
  1  4  2  0
  1  9  1  0
  2  7  1  0
  2 11  1  0
  2 12  1  0
  3  5  2  0
  3  6  2  0
  8 10  1  0
M  END
