CC=O.O=C=O.[H][H]_17
     RDKit          3D

 12  9  0  0  0  0  0  0  0  0999 V2000
   -0.2031    1.4526    1.0449 C   0  0  0  0  0  0  0  0  0  0  0  0
    0.2720    0.0869    0.7473 C   0  0  0  0  0  0  0  0  0  0  0  0
   -3.5413    0.8242    3.2929 C   0  0  0  0  0  0  0  0  0  0  0  0
    0.3245    2.4527    0.6611 O   0  0  0  0  0  0  0  0  0  0  0  0
   -2.5928    0.5636    2.6786 O   0  0  0  0  0  0  0  0  0  0  0  0
   -4.4905    1.0828    3.9080 O   0  0  0  0  0  0  0  0  0  0  0  0
   -0.3677   -0.6770    1.1942 H   0  0  0  0  0  0  0  0  0  0  0  0
   -1.6817    1.7772   -1.6339 H   0  0  0  0  0  0  0  0  0  0  0  0
   -1.0903    1.5980    1.6496 H   0  0  0  0  0  0  0  0  0  0  0  0
   -1.2261    2.3982   -1.5321 H   0  0  0  0  0  0  0  0  0  0  0  0
    0.2975   -0.0761   -0.3312 H   0  0  0  0  0  0  0  0  0  0  0  0
    1.2856   -0.0501    1.1269 H   0  0  0  0  0  0  0  0  0  0  0  0
  1  2  1  0
  1  4  2  0
  1  9  1  0
  2  7  1  0
  2 11  1  0
  2 12  1  0
  3  5  2  0
  3  6  2  0
  8 10  1  0
M  END
