CC=O.O=C=O.[H][H]_11
     RDKit          3D

 12  9  0  0  0  0  0  0  0  0999 V2000
   -0.3628   -0.0606    0.8088 C   0  0  0  0  0  0  0  0  0  0  0  0
    0.8515    0.7773    0.7404 C   0  0  0  0  0  0  0  0  0  0  0  0
   -4.1596    0.7498    1.4800 C   0  0  0  0  0  0  0  0  0  0  0  0
   -1.4582    0.3645    1.0209 O   0  0  0  0  0  0  0  0  0  0  0  0
   -4.3514   -0.3913    1.3952 O   0  0  0  0  0  0  0  0  0  0  0  0
   -4.0052    1.8960    1.5711 O   0  0  0  0  0  0  0  0  0  0  0  0
    0.7377    1.5400   -0.0317 H   0  0  0  0  0  0  0  0  0  0  0  0
   -1.6798    2.8781    1.4669 H   0  0  0  0  0  0  0  0  0  0  0  0
   -0.2927   -1.1336    0.6675 H   0  0  0  0  0  0  0  0  0  0  0  0
   -1.0475    3.3292    1.4815 H   0  0  0  0  0  0  0  0  0  0  0  0
    1.0080    1.2907    1.6904 H   0  0  0  0  0  0  0  0  0  0  0  0
    1.7459    0.1928    0.5151 H   0  0  0  0  0  0  0  0  0  0  0  0
  1  2  1  0
  1  4  2  0
  1  9  1  0
  2  7  1  0
  2 11  1  0
  2 12  1  0
  3  5  2  0
  3  6  2  0
  8 10  1  0
M  END
