OOCC(=C)O_0
     RDKit          3D

 12 11  0  0  0  0  0  0  0  0999 V2000
    1.4614    0.0510    0.2881 C   0  0  0  0  0  0  0  0  0  0  0  0
   -0.1088    1.9546    0.1628 C   0  0  0  0  0  0  0  0  0  0  0  0
    0.2073    0.7642    0.6676 C   0  0  0  0  0  0  0  0  0  0  0  0
    1.7806   -0.9072    1.2593 O   0  0  0  0  0  0  0  0  0  0  0  0
    0.8744   -2.0521    1.2189 O   0  0  0  0  0  0  0  0  0  0  0  0
   -0.5960    0.1127    1.5621 O   0  0  0  0  0  0  0  0  0  0  0  0
    1.4521   -2.7888    0.9672 H   0  0  0  0  0  0  0  0  0  0  0  0
    2.3062    0.7445    0.2146 H   0  0  0  0  0  0  0  0  0  0  0  0
    1.3456   -0.4703   -0.6678 H   0  0  0  0  0  0  0  0  0  0  0  0
   -0.1714   -0.7597    1.7184 H   0  0  0  0  0  0  0  0  0  0  0  0
    0.5308    2.4502   -0.5385 H   0  0  0  0  0  0  0  0  0  0  0  0
   -1.0196    2.4299    0.4634 H   0  0  0  0  0  0  0  0  0  0  0  0
  1  3  1  0
  1  4  1  0
  1  8  1  0
  1  9  1  0
  2  3  2  0
  2 11  1  0
  2 12  1  0
  3  6  1  0
  4  5  1  0
  5  7  1  0
  6 10  1  0
M  END
