OOCC(=C)O_1
     RDKit          3D

 12 11  0  0  0  0  0  0  0  0999 V2000
    1.0104   -0.3124   -0.2907 C   0  0  0  0  0  0  0  0  0  0  0  0
    0.2840    1.8888    0.5623 C   0  0  0  0  0  0  0  0  0  0  0  0
    0.2365    0.5608    0.6342 C   0  0  0  0  0  0  0  0  0  0  0  0
    1.2221   -1.5374    0.3465 O   0  0  0  0  0  0  0  0  0  0  0  0
    1.9774   -1.3188    1.5660 O   0  0  0  0  0  0  0  0  0  0  0  0
   -0.5187   -0.0980    1.5687 O   0  0  0  0  0  0  0  0  0  0  0  0
    1.3161   -1.0679    2.2398 H   0  0  0  0  0  0  0  0  0  0  0  0
    1.9960    0.1087   -0.5173 H   0  0  0  0  0  0  0  0  0  0  0  0
    0.4685   -0.4964   -1.2247 H   0  0  0  0  0  0  0  0  0  0  0  0
   -0.5289   -1.0589    1.3495 H   0  0  0  0  0  0  0  0  0  0  0  0
    0.8845    2.3854   -0.1718 H   0  0  0  0  0  0  0  0  0  0  0  0
   -0.2853    2.4752    1.2537 H   0  0  0  0  0  0  0  0  0  0  0  0
  1  3  1  0
  1  4  1  0
  1  8  1  0
  1  9  1  0
  2  3  2  0
  2 11  1  0
  2 12  1  0
  3  6  1  0
  4  5  1  0
  5  7  1  0
  6 10  1  0
M  END
