OOCC(=C)O
     RDKit          3D

 12 11  0  0  0  0  0  0  0  0999 V2000
    1.0043   -0.3114    0.2086 C   0  0  0  0  0  0  0  0  0  0  0  0
    0.2488    2.0100    0.5429 C   0  0  0  0  0  0  0  0  0  0  0  0
   -0.0354    0.7093    0.5701 C   0  0  0  0  0  0  0  0  0  0  0  0
    1.7801   -0.5997    1.3425 O   0  0  0  0  0  0  0  0  0  0  0  0
    2.6681   -1.4982    0.9589 O   0  0  0  0  0  0  0  0  0  0  0  0
   -1.3039    0.2998    0.9755 O   0  0  0  0  0  0  0  0  0  0  0  0
    2.3756   -2.3435    1.3872 H   0  0  0  0  0  0  0  0  0  0  0  0
    1.6484    0.0780   -0.6132 H   0  0  0  0  0  0  0  0  0  0  0  0
    0.4971   -1.2336   -0.1540 H   0  0  0  0  0  0  0  0  0  0  0  0
   -1.5483   -0.6818    1.0293 H   0  0  0  0  0  0  0  0  0  0  0  0
    1.2305    2.3613    0.2501 H   0  0  0  0  0  0  0  0  0  0  0  0
   -0.5028    2.7388    0.8183 H   0  0  0  0  0  0  0  0  0  0  0  0
  1  3  1  0
  1  4  1  0
  1  8  1  0
  1  9  1  0
  2  3  2  0
  2 11  1  0
  2 12  1  0
  3  6  1  0
  4  5  1  0
  5  7  1  0
  6 10  1  0
M  END
