COC(=O)CO_1
     RDKit          3D

 12 11  0  0  0  0  0  0  0  0999 V2000
   -1.0654    0.4927    1.3465 C   0  0  0  0  0  0  0  0  0  0  0  0
    1.9560   -0.1852   -0.5593 C   0  0  0  0  0  0  0  0  0  0  0  0
    0.5988   -0.3140    0.0752 C   0  0  0  0  0  0  0  0  0  0  0  0
    0.2045    0.7447    0.8301 O   0  0  0  0  0  0  0  0  0  0  0  0
    2.2752    1.1579   -0.8202 O   0  0  0  0  0  0  0  0  0  0  0  0
   -0.0500   -1.3235   -0.0894 O   0  0  0  0  0  0  0  0  0  0  0  0
    1.8737    1.7284   -0.1250 H   0  0  0  0  0  0  0  0  0  0  0  0
   -1.0231   -0.4155    1.9553 H   0  0  0  0  0  0  0  0  0  0  0  0
   -1.3786    1.3449    1.9554 H   0  0  0  0  0  0  0  0  0  0  0  0
   -1.7593    0.3445    0.5135 H   0  0  0  0  0  0  0  0  0  0  0  0
    1.9823   -0.7243   -1.5137 H   0  0  0  0  0  0  0  0  0  0  0  0
    2.7283   -0.6107    0.0928 H   0  0  0  0  0  0  0  0  0  0  0  0
  1  4  1  0
  1  8  1  0
  1  9  1  0
  1 10  1  0
  2  3  1  0
  2  5  1  0
  2 11  1  0
  2 12  1  0
  3  4  1  0
  3  6  2  0
  5  7  1  0
M  END
