COC(=O)CO_2
     RDKit          3D

 12 11  0  0  0  0  0  0  0  0999 V2000
   -1.1939   -0.0875    1.2957 C   0  0  0  0  0  0  0  0  0  0  0  0
    1.7291    0.2412   -0.8536 C   0  0  0  0  0  0  0  0  0  0  0  0
    0.6141    0.5267    0.1127 C   0  0  0  0  0  0  0  0  0  0  0  0
   -0.2332   -0.5040    0.3784 O   0  0  0  0  0  0  0  0  0  0  0  0
    2.9779    0.1942   -0.2097 O   0  0  0  0  0  0  0  0  0  0  0  0
    0.5351    1.6234    0.6172 O   0  0  0  0  0  0  0  0  0  0  0  0
    2.8749   -0.1320    0.7099 H   0  0  0  0  0  0  0  0  0  0  0  0
   -0.6897    0.2382    2.2105 H   0  0  0  0  0  0  0  0  0  0  0  0
   -1.7508    0.7503    0.8653 H   0  0  0  0  0  0  0  0  0  0  0  0
   -1.8675   -0.9219    1.5092 H   0  0  0  0  0  0  0  0  0  0  0  0
    1.7848    1.0288   -1.6143 H   0  0  0  0  0  0  0  0  0  0  0  0
    1.5616   -0.7174   -1.3600 H   0  0  0  0  0  0  0  0  0  0  0  0
  1  4  1  0
  1  8  1  0
  1  9  1  0
  1 10  1  0
  2  3  1  0
  2  5  1  0
  2 11  1  0
  2 12  1  0
  3  4  1  0
  3  6  2  0
  5  7  1  0
M  END
