COC(=O)CO_0
     RDKit          3D

 12 11  0  0  0  0  0  0  0  0999 V2000
   -1.3130    0.2832    1.2071 C   0  0  0  0  0  0  0  0  0  0  0  0
    1.7093    0.3185   -0.8359 C   0  0  0  0  0  0  0  0  0  0  0  0
    0.7081    0.0681    0.2561 C   0  0  0  0  0  0  0  0  0  0  0  0
   -0.5279    0.6151    0.1070 O   0  0  0  0  0  0  0  0  0  0  0  0
    3.0044    0.3907   -0.2996 O   0  0  0  0  0  0  0  0  0  0  0  0
    1.0546   -0.6152    1.1926 O   0  0  0  0  0  0  0  0  0  0  0  0
    3.0488   -0.1862    0.4967 H   0  0  0  0  0  0  0  0  0  0  0  0
   -0.8351    0.6747    2.1101 H   0  0  0  0  0  0  0  0  0  0  0  0
   -2.3059    0.7231    1.0811 H   0  0  0  0  0  0  0  0  0  0  0  0
   -1.3848   -0.8066    1.2722 H   0  0  0  0  0  0  0  0  0  0  0  0
    1.5006    1.2645   -1.3493 H   0  0  0  0  0  0  0  0  0  0  0  0
    1.6833   -0.4900   -1.5766 H   0  0  0  0  0  0  0  0  0  0  0  0
  1  4  1  0
  1  8  1  0
  1  9  1  0
  1 10  1  0
  2  3  1  0
  2  5  1  0
  2 11  1  0
  2 12  1  0
  3  4  1  0
  3  6  2  0
  5  7  1  0
M  END
