C[C@@H](OC=O)O_2
     RDKit          3D

 12 11  0  0  0  0  0  0  0  0999 V2000
    1.0995    0.3421    0.4547 C   0  0  1  0  0  0  0  0  0  0  0  0
    0.1294    0.0220   -0.6741 C   0  0  0  0  0  0  0  0  0  0  0  0
   -0.4324    0.3927    2.1318 C   0  0  0  0  0  0  0  0  0  0  0  0
    0.6801   -0.2279    1.6860 O   0  0  0  0  0  0  0  0  0  0  0  0
    2.4203   -0.0354    0.1048 O   0  0  0  0  0  0  0  0  0  0  0  0
   -1.0442    1.2848    1.6025 O   0  0  0  0  0  0  0  0  0  0  0  0
    2.9386   -0.1610    0.9246 H   0  0  0  0  0  0  0  0  0  0  0  0
    0.0914   -1.0568   -0.8217 H   0  0  0  0  0  0  0  0  0  0  0  0
    1.1265    1.4343    0.6297 H   0  0  0  0  0  0  0  0  0  0  0  0
   -0.8145    0.0327    3.0759 H   0  0  0  0  0  0  0  0  0  0  0  0
    0.4527    0.4826   -1.6081 H   0  0  0  0  0  0  0  0  0  0  0  0
   -0.8758    0.3724   -0.4321 H   0  0  0  0  0  0  0  0  0  0  0  0
  1  2  1  0
  1  4  1  0
  1  5  1  0
  1  9  1  1
  2  8  1  0
  2 11  1  0
  2 12  1  0
  3  4  1  0
  3  6  2  0
  3 10  1  0
  5  7  1  0
M  END
