C[C@@H](OC=O)O_0
     RDKit          3D

 12 11  0  0  0  0  0  0  0  0999 V2000
    0.8798    0.9405    0.3306 C   0  0  1  0  0  0  0  0  0  0  0  0
    0.1428    0.1231   -0.7228 C   0  0  0  0  0  0  0  0  0  0  0  0
   -0.0851    0.0117    2.1736 C   0  0  0  0  0  0  0  0  0  0  0  0
    0.0653    1.1534    1.4735 O   0  0  0  0  0  0  0  0  0  0  0  0
    2.1363    0.3752    0.6338 O   0  0  0  0  0  0  0  0  0  0  0  0
    0.3633   -1.0774    1.9267 O   0  0  0  0  0  0  0  0  0  0  0  0
    1.9827   -0.4179    1.1862 H   0  0  0  0  0  0  0  0  0  0  0  0
    0.7503    0.0002   -1.6199 H   0  0  0  0  0  0  0  0  0  0  0  0
    1.1010    1.9503   -0.0588 H   0  0  0  0  0  0  0  0  0  0  0  0
   -0.6867    0.0977    3.0669 H   0  0  0  0  0  0  0  0  0  0  0  0
   -0.8031    0.5932   -0.9933 H   0  0  0  0  0  0  0  0  0  0  0  0
   -0.0752   -0.8676   -0.3225 H   0  0  0  0  0  0  0  0  0  0  0  0
  1  2  1  0
  1  4  1  0
  1  5  1  0
  1  9  1  6
  2  8  1  0
  2 11  1  0
  2 12  1  0
  3  4  1  0
  3  6  2  0
  3 10  1  0
  5  7  1  0
M  END
