C[C@@H](OC=O)O
     RDKit          3D

 12 11  0  0  0  0  0  0  0  0999 V2000
    1.0853    0.3950    0.4024 C   0  0  1  0  0  0  0  0  0  0  0  0
    0.1717    0.0346   -0.7659 C   0  0  0  0  0  0  0  0  0  0  0  0
   -0.4794    0.2048    2.3303 C   0  0  0  0  0  0  0  0  0  0  0  0
    0.6281   -0.2371    1.5994 O   0  0  0  0  0  0  0  0  0  0  0  0
    2.3838   -0.0453    0.1155 O   0  0  0  0  0  0  0  0  0  0  0  0
   -1.1216    1.2326    1.9852 O   0  0  0  0  0  0  0  0  0  0  0  0
    2.9626    0.2991    0.8447 H   0  0  0  0  0  0  0  0  0  0  0  0
   -0.8569    0.4094   -0.5831 H   0  0  0  0  0  0  0  0  0  0  0  0
    1.0928    1.5022    0.5317 H   0  0  0  0  0  0  0  0  0  0  0  0
   -0.7850   -0.3422    3.2114 H   0  0  0  0  0  0  0  0  0  0  0  0
    0.1362   -1.0679   -0.8971 H   0  0  0  0  0  0  0  0  0  0  0  0
    0.5539    0.4972   -1.7006 H   0  0  0  0  0  0  0  0  0  0  0  0
  1  2  1  0
  1  4  1  0
  1  5  1  0
  1  9  1  1
  2  8  1  0
  2 11  1  0
  2 12  1  0
  3  4  1  0
  3  6  2  0
  3 10  1  0
  5  7  1  0
M  END
