OOCC=C=O.[H][H]_19
     RDKit          3D

 12 10  0  0  0  0  0  0  0  0999 V2000
   -0.7361   -0.0748    1.3635 C   0  0  0  0  0  0  0  0  0  0  0  0
   -0.7148    1.2938    1.9146 C   0  0  0  0  0  0  0  0  0  0  0  0
   -1.8023    1.9467    2.2771 C   0  0  0  0  0  0  0  0  0  0  0  0
    0.5390   -0.4648    0.9326 O   0  0  0  0  0  0  0  0  0  0  0  0
    1.5104   -0.2759    2.0002 O   0  0  0  0  0  0  0  0  0  0  0  0
   -2.7829    2.4991    2.5924 O   0  0  0  0  0  0  0  0  0  0  0  0
    1.9525   -1.1372    2.0703 H   0  0  0  0  0  0  0  0  0  0  0  0
   -1.0573   -0.7979    2.1240 H   0  0  0  0  0  0  0  0  0  0  0  0
   -1.4126   -0.1461    0.5018 H   0  0  0  0  0  0  0  0  0  0  0  0
    0.6673    1.4349   -1.0715 H   0  0  0  0  0  0  0  0  0  0  0  0
    1.0064    1.9763   -0.6292 H   0  0  0  0  0  0  0  0  0  0  0  0
    0.2541    1.7191    2.1199 H   0  0  0  0  0  0  0  0  0  0  0  0
  1  2  1  0
  1  4  1  0
  1  8  1  0
  1  9  1  0
  2  3  2  0
  2 12  1  0
  3  6  2  0
  4  5  1  0
  5  7  1  0
 10 11  1  0
M  END
