OOCC=C=O.[H][H]_17
     RDKit          3D

 12 10  0  0  0  0  0  0  0  0999 V2000
    0.3642    0.1604    1.2493 C   0  0  0  0  0  0  0  0  0  0  0  0
   -0.7447    0.8446    1.9416 C   0  0  0  0  0  0  0  0  0  0  0  0
   -1.0824    2.0983    1.7078 C   0  0  0  0  0  0  0  0  0  0  0  0
    0.4280   -1.1914    1.6131 O   0  0  0  0  0  0  0  0  0  0  0  0
    0.4742   -1.3205    3.0623 O   0  0  0  0  0  0  0  0  0  0  0  0
   -1.3572    3.2111    1.4790 O   0  0  0  0  0  0  0  0  0  0  0  0
    1.2515   -1.8793    3.2233 H   0  0  0  0  0  0  0  0  0  0  0  0
    0.2405    0.2036    0.1594 H   0  0  0  0  0  0  0  0  0  0  0  0
    1.3285    0.6134    1.5126 H   0  0  0  0  0  0  0  0  0  0  0  0
   -0.9681    2.1252   -1.3532 H   0  0  0  0  0  0  0  0  0  0  0  0
   -1.2922    2.8003   -1.1464 H   0  0  0  0  0  0  0  0  0  0  0  0
   -1.2188    0.3076    2.7469 H   0  0  0  0  0  0  0  0  0  0  0  0
  1  2  1  0
  1  4  1  0
  1  8  1  0
  1  9  1  0
  2  3  2  0
  2 12  1  0
  3  6  2  0
  4  5  1  0
  5  7  1  0
 10 11  1  0
M  END
