OOCC=C=O.[H][H]_6
     RDKit          3D

 12 10  0  0  0  0  0  0  0  0999 V2000
   -0.2449   -0.0142    0.8648 C   0  0  0  0  0  0  0  0  0  0  0  0
   -1.0475    1.0702    1.4815 C   0  0  0  0  0  0  0  0  0  0  0  0
   -1.0792    1.2097    2.7924 C   0  0  0  0  0  0  0  0  0  0  0  0
   -0.1483   -1.1423    1.6965 O   0  0  0  0  0  0  0  0  0  0  0  0
    0.7714   -0.9048    2.7943 O   0  0  0  0  0  0  0  0  0  0  0  0
   -0.9585    1.1499    3.9543 O   0  0  0  0  0  0  0  0  0  0  0  0
    0.2498   -0.3589    3.4124 H   0  0  0  0  0  0  0  0  0  0  0  0
   -0.6838   -0.3541   -0.0824 H   0  0  0  0  0  0  0  0  0  0  0  0
    0.7861    0.3125    0.6755 H   0  0  0  0  0  0  0  0  0  0  0  0
    0.7954    2.3886   -1.4241 H   0  0  0  0  0  0  0  0  0  0  0  0
    0.5055    2.8023   -0.8339 H   0  0  0  0  0  0  0  0  0  0  0  0
   -1.5226    1.8144    0.8645 H   0  0  0  0  0  0  0  0  0  0  0  0
  1  2  1  0
  1  4  1  0
  1  8  1  0
  1  9  1  0
  2  3  2  0
  2 12  1  0
  3  6  2  0
  4  5  1  0
  5  7  1  0
 10 11  1  0
M  END
