OOCC=C=O.[H][H]_12
     RDKit          3D

 12 10  0  0  0  0  0  0  0  0999 V2000
    0.5719    0.7682    2.1232 C   0  0  0  0  0  0  0  0  0  0  0  0
   -0.8604    1.1083    2.0232 C   0  0  0  0  0  0  0  0  0  0  0  0
   -1.3105    2.3479    1.9927 C   0  0  0  0  0  0  0  0  0  0  0  0
    0.7555   -0.6178    2.2178 O   0  0  0  0  0  0  0  0  0  0  0  0
    0.0707   -1.2913    1.1241 O   0  0  0  0  0  0  0  0  0  0  0  0
   -1.6800    3.4565    1.9649 O   0  0  0  0  0  0  0  0  0  0  0  0
    0.7582   -1.8477    0.7239 H   0  0  0  0  0  0  0  0  0  0  0  0
    1.1179    1.1080    1.2338 H   0  0  0  0  0  0  0  0  0  0  0  0
    1.0280    1.2240    3.0116 H   0  0  0  0  0  0  0  0  0  0  0  0
   -0.6532    1.0917   -1.0419 H   0  0  0  0  0  0  0  0  0  0  0  0
   -0.8311    0.3353   -1.0391 H   0  0  0  0  0  0  0  0  0  0  0  0
   -1.5434    0.2903    1.8615 H   0  0  0  0  0  0  0  0  0  0  0  0
  1  2  1  0
  1  4  1  0
  1  8  1  0
  1  9  1  0
  2  3  2  0
  2 12  1  0
  3  6  2  0
  4  5  1  0
  5  7  1  0
 10 11  1  0
M  END
