OOCC=C=O.[H][H]_13
     RDKit          3D

 12 10  0  0  0  0  0  0  0  0999 V2000
    0.5083    0.8939    1.8387 C   0  0  0  0  0  0  0  0  0  0  0  0
   -0.9482    1.1300    1.8320 C   0  0  0  0  0  0  0  0  0  0  0  0
   -1.5191    2.1566    2.4326 C   0  0  0  0  0  0  0  0  0  0  0  0
    0.8477   -0.1897    1.0174 O   0  0  0  0  0  0  0  0  0  0  0  0
    0.0575   -1.3589    1.3746 O   0  0  0  0  0  0  0  0  0  0  0  0
   -1.9966    3.0741    2.9768 O   0  0  0  0  0  0  0  0  0  0  0  0
    0.7196   -2.0542    1.5192 H   0  0  0  0  0  0  0  0  0  0  0  0
    1.0551    1.7717    1.4706 H   0  0  0  0  0  0  0  0  0  0  0  0
    0.8615    0.6577    2.8506 H   0  0  0  0  0  0  0  0  0  0  0  0
   -0.1547    0.4072   -1.2749 H   0  0  0  0  0  0  0  0  0  0  0  0
   -0.4443    1.1274   -1.2417 H   0  0  0  0  0  0  0  0  0  0  0  0
   -1.5632    0.3575    1.3999 H   0  0  0  0  0  0  0  0  0  0  0  0
  1  2  1  0
  1  4  1  0
  1  8  1  0
  1  9  1  0
  2  3  2  0
  2 12  1  0
  3  6  2  0
  4  5  1  0
  5  7  1  0
 10 11  1  0
M  END
