OOCC=C=O.[H][H]_0
     RDKit          3D

 12 10  0  0  0  0  0  0  0  0999 V2000
    0.9680    0.6072    1.5825 C   0  0  0  0  0  0  0  0  0  0  0  0
   -0.0005    1.6550    1.9886 C   0  0  0  0  0  0  0  0  0  0  0  0
   -1.2707    1.3514    2.1720 C   0  0  0  0  0  0  0  0  0  0  0  0
    0.3637   -0.4131    0.8292 O   0  0  0  0  0  0  0  0  0  0  0  0
   -0.4361   -1.2824    1.6729 O   0  0  0  0  0  0  0  0  0  0  0  0
   -2.3273    0.8621    2.2832 O   0  0  0  0  0  0  0  0  0  0  0  0
   -1.2506   -0.7660    1.8214 H   0  0  0  0  0  0  0  0  0  0  0  0
    1.7761    1.0212    0.9652 H   0  0  0  0  0  0  0  0  0  0  0  0
    1.4129    0.1161    2.4580 H   0  0  0  0  0  0  0  0  0  0  0  0
   -0.9232    1.4455   -0.9243 H   0  0  0  0  0  0  0  0  0  0  0  0
   -1.2319    0.7330   -0.8961 H   0  0  0  0  0  0  0  0  0  0  0  0
    0.3431    2.6435    2.2433 H   0  0  0  0  0  0  0  0  0  0  0  0
  1  2  1  0
  1  4  1  0
  1  8  1  0
  1  9  1  0
  2  3  2  0
  2 12  1  0
  3  6  2  0
  4  5  1  0
  5  7  1  0
 10 11  1  0
M  END
