OOCC=C=O.[H][H]_16
     RDKit          3D

 12 10  0  0  0  0  0  0  0  0999 V2000
    0.7951    0.0976    2.3948 C   0  0  0  0  0  0  0  0  0  0  0  0
   -0.1016    1.0397    3.1082 C   0  0  0  0  0  0  0  0  0  0  0  0
   -1.0926    1.6286    2.4676 C   0  0  0  0  0  0  0  0  0  0  0  0
    0.1442   -0.5582    1.3365 O   0  0  0  0  0  0  0  0  0  0  0  0
   -0.0460    0.3339    0.2074 O   0  0  0  0  0  0  0  0  0  0  0  0
   -1.8870    2.0347    1.7112 O   0  0  0  0  0  0  0  0  0  0  0  0
   -0.8080    0.8803    0.4775 H   0  0  0  0  0  0  0  0  0  0  0  0
    1.6492    0.6231    1.9474 H   0  0  0  0  0  0  0  0  0  0  0  0
    1.1770   -0.6834    3.0654 H   0  0  0  0  0  0  0  0  0  0  0  0
   -1.6113    0.4624   -2.2519 H   0  0  0  0  0  0  0  0  0  0  0  0
   -0.9134    0.7760   -2.3876 H   0  0  0  0  0  0  0  0  0  0  0  0
    0.1181    1.3386    4.1194 H   0  0  0  0  0  0  0  0  0  0  0  0
  1  2  1  0
  1  4  1  0
  1  8  1  0
  1  9  1  0
  2  3  2  0
  2 12  1  0
  3  6  2  0
  4  5  1  0
  5  7  1  0
 10 11  1  0
M  END
