OOCC=C=O.[H][H]_8
     RDKit          3D

 12 10  0  0  0  0  0  0  0  0999 V2000
    0.4896   -0.0626    2.7481 C   0  0  0  0  0  0  0  0  0  0  0  0
   -0.1395    1.2802    2.7844 C   0  0  0  0  0  0  0  0  0  0  0  0
   -0.5991    1.8299    1.6771 C   0  0  0  0  0  0  0  0  0  0  0  0
    1.1039   -0.3292    1.5130 O   0  0  0  0  0  0  0  0  0  0  0  0
    0.1156   -0.6118    0.4883 O   0  0  0  0  0  0  0  0  0  0  0  0
   -0.9391    2.1167    0.5955 O   0  0  0  0  0  0  0  0  0  0  0  0
   -0.2190    0.2727    0.2477 H   0  0  0  0  0  0  0  0  0  0  0  0
    1.2658   -0.1665    3.5176 H   0  0  0  0  0  0  0  0  0  0  0  0
   -0.2561   -0.8553    2.8940 H   0  0  0  0  0  0  0  0  0  0  0  0
   -1.4629    1.0136   -2.1433 H   0  0  0  0  0  0  0  0  0  0  0  0
   -1.6054    1.7201   -1.8533 H   0  0  0  0  0  0  0  0  0  0  0  0
   -0.3302    1.7655    3.7269 H   0  0  0  0  0  0  0  0  0  0  0  0
  1  2  1  0
  1  4  1  0
  1  8  1  0
  1  9  1  0
  2  3  2  0
  2 12  1  0
  3  6  2  0
  4  5  1  0
  5  7  1  0
 10 11  1  0
M  END
