OOCC=C=O.[H][H]_4
     RDKit          3D

 12 10  0  0  0  0  0  0  0  0999 V2000
    0.9030    0.8528    1.8026 C   0  0  0  0  0  0  0  0  0  0  0  0
   -0.0013    1.4895    2.7911 C   0  0  0  0  0  0  0  0  0  0  0  0
   -1.2780    1.1614    2.8306 C   0  0  0  0  0  0  0  0  0  0  0  0
    0.2284    0.4793    0.6284 O   0  0  0  0  0  0  0  0  0  0  0  0
   -0.5867   -0.7022    0.8469 O   0  0  0  0  0  0  0  0  0  0  0  0
   -2.3522    0.7196    2.6930 O   0  0  0  0  0  0  0  0  0  0  0  0
   -1.3702   -0.3529    1.3121 H   0  0  0  0  0  0  0  0  0  0  0  0
    1.7138    1.5293    1.5016 H   0  0  0  0  0  0  0  0  0  0  0  0
    1.3463   -0.0679    2.2044 H   0  0  0  0  0  0  0  0  0  0  0  0
   -0.7899    0.4188   -2.3718 H   0  0  0  0  0  0  0  0  0  0  0  0
   -0.7876    0.3150   -1.6020 H   0  0  0  0  0  0  0  0  0  0  0  0
    0.3980    2.1305    3.5591 H   0  0  0  0  0  0  0  0  0  0  0  0
  1  2  1  0
  1  4  1  0
  1  8  1  0
  1  9  1  0
  2  3  2  0
  2 12  1  0
  3  6  2  0
  4  5  1  0
  5  7  1  0
 10 11  1  0
M  END
