OOCC=C=O.[H][H]_15
     RDKit          3D

 12 10  0  0  0  0  0  0  0  0999 V2000
    0.6836    0.6876    1.9958 C   0  0  0  0  0  0  0  0  0  0  0  0
   -0.7415    1.0686    2.0242 C   0  0  0  0  0  0  0  0  0  0  0  0
   -1.1711    2.2878    1.7606 C   0  0  0  0  0  0  0  0  0  0  0  0
    0.8585   -0.6408    2.4062 O   0  0  0  0  0  0  0  0  0  0  0  0
   -0.0001   -1.5234    1.6302 O   0  0  0  0  0  0  0  0  0  0  0  0
   -1.5220    3.3756    1.5162 O   0  0  0  0  0  0  0  0  0  0  0  0
    0.6083   -2.1931    1.2784 H   0  0  0  0  0  0  0  0  0  0  0  0
    1.0905    0.7697    0.9798 H   0  0  0  0  0  0  0  0  0  0  0  0
    1.2785    1.3221    2.6656 H   0  0  0  0  0  0  0  0  0  0  0  0
   -0.9001    0.9496   -1.0441 H   0  0  0  0  0  0  0  0  0  0  0  0
   -1.3069    1.5984   -1.1754 H   0  0  0  0  0  0  0  0  0  0  0  0
   -1.4542    0.2712    2.1584 H   0  0  0  0  0  0  0  0  0  0  0  0
  1  2  1  0
  1  4  1  0
  1  8  1  0
  1  9  1  0
  2  3  2  0
  2 12  1  0
  3  6  2  0
  4  5  1  0
  5  7  1  0
 10 11  1  0
M  END
