OOCC=C=O.[H][H]_2
     RDKit          3D

 12 10  0  0  0  0  0  0  0  0999 V2000
   -0.1562    1.4755    1.1434 C   0  0  0  0  0  0  0  0  0  0  0  0
   -0.4748    1.7084    2.5732 C   0  0  0  0  0  0  0  0  0  0  0  0
   -0.7948    0.6961    3.3557 C   0  0  0  0  0  0  0  0  0  0  0  0
   -0.8370    0.3629    0.6215 O   0  0  0  0  0  0  0  0  0  0  0  0
   -0.2503   -0.8782    1.0942 O   0  0  0  0  0  0  0  0  0  0  0  0
   -1.0405   -0.3319    3.8565 O   0  0  0  0  0  0  0  0  0  0  0  0
   -0.5962   -0.9595    2.0029 H   0  0  0  0  0  0  0  0  0  0  0  0
   -0.4326    2.3372    0.5216 H   0  0  0  0  0  0  0  0  0  0  0  0
    0.9136    1.2716    1.0028 H   0  0  0  0  0  0  0  0  0  0  0  0
    0.9428    0.0821   -1.6382 H   0  0  0  0  0  0  0  0  0  0  0  0
    0.4850   -0.4741   -1.3474 H   0  0  0  0  0  0  0  0  0  0  0  0
   -0.3355    2.6832    3.0096 H   0  0  0  0  0  0  0  0  0  0  0  0
  1  2  1  0
  1  4  1  0
  1  8  1  0
  1  9  1  0
  2  3  2  0
  2 12  1  0
  3  6  2  0
  4  5  1  0
  5  7  1  0
 10 11  1  0
M  END
