OOCC=C=O.[H][H]
     RDKit          3D

 12 10  0  0  0  0  0  0  0  0999 V2000
    0.2661    0.2556    1.5203 C   0  0  0  0  0  0  0  0  0  0  0  0
   -0.3174    1.5719    1.9217 C   0  0  0  0  0  0  0  0  0  0  0  0
   -1.6096    1.7580    1.9264 C   0  0  0  0  0  0  0  0  0  0  0  0
   -0.1324   -0.7343    2.4337 O   0  0  0  0  0  0  0  0  0  0  0  0
    0.4086   -1.8612    2.0092 O   0  0  0  0  0  0  0  0  0  0  0  0
   -2.8344    1.9343    1.9305 O   0  0  0  0  0  0  0  0  0  0  0  0
    1.1296   -2.0583    2.6610 H   0  0  0  0  0  0  0  0  0  0  0  0
   -0.0798    0.0003    0.4927 H   0  0  0  0  0  0  0  0  0  0  0  0
    1.3756    0.3458    1.5165 H   0  0  0  0  0  0  0  0  0  0  0  0
   -0.8883    2.0572   -1.2360 H   0  0  0  0  0  0  0  0  0  0  0  0
   -0.2311    2.3083   -1.1563 H   0  0  0  0  0  0  0  0  0  0  0  0
    0.3367    2.3957    2.1761 H   0  0  0  0  0  0  0  0  0  0  0  0
  1  2  1  0
  1  4  1  0
  1  8  1  0
  1  9  1  0
  2  3  2  0
  2 12  1  0
  3  6  2  0
  4  5  1  0
  5  7  1  0
 10 11  1  0
M  END
