OOCC=C=O.[H][H]_11
     RDKit          3D

 12 10  0  0  0  0  0  0  0  0999 V2000
   -0.4647    0.5992    0.9886 C   0  0  0  0  0  0  0  0  0  0  0  0
   -1.0078    1.4045    2.1096 C   0  0  0  0  0  0  0  0  0  0  0  0
   -0.8920    0.9772    3.3519 C   0  0  0  0  0  0  0  0  0  0  0  0
   -0.4734   -0.7774    1.2692 O   0  0  0  0  0  0  0  0  0  0  0  0
    0.5773   -1.1257    2.2083 O   0  0  0  0  0  0  0  0  0  0  0  0
   -0.6731    0.4178    4.3554 O   0  0  0  0  0  0  0  0  0  0  0  0
    0.2147   -0.8412    3.0683 H   0  0  0  0  0  0  0  0  0  0  0  0
   -1.0490    0.7395    0.0697 H   0  0  0  0  0  0  0  0  0  0  0  0
    0.5816    0.8604    0.7823 H   0  0  0  0  0  0  0  0  0  0  0  0
    0.7489    1.9089   -1.8074 H   0  0  0  0  0  0  0  0  0  0  0  0
    1.2554    1.4164   -2.1305 H   0  0  0  0  0  0  0  0  0  0  0  0
   -1.3944    2.3937    1.9306 H   0  0  0  0  0  0  0  0  0  0  0  0
  1  2  1  0
  1  4  1  0
  1  8  1  0
  1  9  1  0
  2  3  2  0
  2 12  1  0
  3  6  2  0
  4  5  1  0
  5  7  1  0
 10 11  1  0
M  END
