O=CC(C=O)O.[H][H]_1
     RDKit          3D

 12 10  0  0  0  0  0  0  0  0999 V2000
    0.4008    0.1441   -0.0805 C   0  0  0  0  0  0  0  0  0  0  0  0
    0.2374    0.4524    1.3764 C   0  0  0  0  0  0  0  0  0  0  0  0
    0.6561    1.8494    1.7048 C   0  0  0  0  0  0  0  0  0  0  0  0
   -0.0566    0.8277   -0.9449 O   0  0  0  0  0  0  0  0  0  0  0  0
    0.9756   -0.4484    2.1859 O   0  0  0  0  0  0  0  0  0  0  0  0
    0.9844    2.1370    2.8131 O   0  0  0  0  0  0  0  0  0  0  0  0
    1.2026   -0.0052    3.0322 H   0  0  0  0  0  0  0  0  0  0  0  0
   -2.1896    2.3685    0.3422 H   0  0  0  0  0  0  0  0  0  0  0  0
    0.9497   -0.7415   -0.3811 H   0  0  0  0  0  0  0  0  0  0  0  0
    0.6259    2.6324    0.9548 H   0  0  0  0  0  0  0  0  0  0  0  0
   -2.1160    2.2659   -0.4245 H   0  0  0  0  0  0  0  0  0  0  0  0
   -0.8237    0.3211    1.6512 H   0  0  0  0  0  0  0  0  0  0  0  0
  1  2  1  0
  1  4  2  0
  1  9  1  0
  2  3  1  0
  2  5  1  0
  2 12  1  0
  3  6  2  0
  3 10  1  0
  5  7  1  0
  8 11  1  0
M  END
