O=CC(C=O)O.[H][H]_15
     RDKit          3D

 12 10  0  0  0  0  0  0  0  0999 V2000
   -0.0252    1.0604    0.5514 C   0  0  0  0  0  0  0  0  0  0  0  0
    0.2987    0.3927    1.8493 C   0  0  0  0  0  0  0  0  0  0  0  0
   -0.2099    1.1710    3.0236 C   0  0  0  0  0  0  0  0  0  0  0  0
    0.6226    0.8345   -0.4224 O   0  0  0  0  0  0  0  0  0  0  0  0
    1.7009    0.1929    1.9238 O   0  0  0  0  0  0  0  0  0  0  0  0
   -1.3430    1.5322    3.1218 O   0  0  0  0  0  0  0  0  0  0  0  0
    2.0574    0.0861    1.0151 H   0  0  0  0  0  0  0  0  0  0  0  0
   -1.1878    2.1606   -2.4269 H   0  0  0  0  0  0  0  0  0  0  0  0
   -0.8793    1.7231    0.4630 H   0  0  0  0  0  0  0  0  0  0  0  0
    0.4662    1.4188    3.8344 H   0  0  0  0  0  0  0  0  0  0  0  0
   -0.4930    1.8418   -2.5652 H   0  0  0  0  0  0  0  0  0  0  0  0
   -0.1613   -0.6108    1.8617 H   0  0  0  0  0  0  0  0  0  0  0  0
  1  2  1  0
  1  4  2  0
  1  9  1  0
  2  3  1  0
  2  5  1  0
  2 12  1  0
  3  6  2  0
  3 10  1  0
  5  7  1  0
  8 11  1  0
M  END
