O=CC(C=O)O.[H][H]_8
     RDKit          3D

 12 10  0  0  0  0  0  0  0  0999 V2000
   -1.0283    0.3202    0.6745 C   0  0  0  0  0  0  0  0  0  0  0  0
    0.2062    0.8832    1.3096 C   0  0  0  0  0  0  0  0  0  0  0  0
    0.1180    0.8853    2.8018 C   0  0  0  0  0  0  0  0  0  0  0  0
   -1.4800   -0.7451    0.9658 O   0  0  0  0  0  0  0  0  0  0  0  0
    0.4655    2.2048    0.8646 O   0  0  0  0  0  0  0  0  0  0  0  0
    0.7788    1.6392    3.4452 O   0  0  0  0  0  0  0  0  0  0  0  0
    0.9690    2.6829    1.5589 H   0  0  0  0  0  0  0  0  0  0  0  0
    0.7989    0.9257   -1.8586 H   0  0  0  0  0  0  0  0  0  0  0  0
   -1.5441    0.8900   -0.0904 H   0  0  0  0  0  0  0  0  0  0  0  0
   -0.5107    0.1726    3.3247 H   0  0  0  0  0  0  0  0  0  0  0  0
    0.9994    1.6709   -1.7684 H   0  0  0  0  0  0  0  0  0  0  0  0
    1.0737    0.2737    1.0021 H   0  0  0  0  0  0  0  0  0  0  0  0
  1  2  1  0
  1  4  2  0
  1  9  1  0
  2  3  1  0
  2  5  1  0
  2 12  1  0
  3  6  2  0
  3 10  1  0
  5  7  1  0
  8 11  1  0
M  END
