O=CC(C=O)O.[H][H]_9
     RDKit          3D

 12 10  0  0  0  0  0  0  0  0999 V2000
    0.8599    1.0133    0.3595 C   0  0  0  0  0  0  0  0  0  0  0  0
    0.0677    0.6031    1.5592 C   0  0  0  0  0  0  0  0  0  0  0  0
    0.1091    1.6388    2.6404 C   0  0  0  0  0  0  0  0  0  0  0  0
    1.2707    0.1944   -0.4018 O   0  0  0  0  0  0  0  0  0  0  0  0
    0.5482   -0.6500    2.0177 O   0  0  0  0  0  0  0  0  0  0  0  0
   -0.1622    2.7854    2.4517 O   0  0  0  0  0  0  0  0  0  0  0  0
    0.9031   -1.1548    1.2539 H   0  0  0  0  0  0  0  0  0  0  0  0
   -1.3839    1.9572   -1.6070 H   0  0  0  0  0  0  0  0  0  0  0  0
    1.0356    2.0605    0.1380 H   0  0  0  0  0  0  0  0  0  0  0  0
    0.3870    1.3496    3.6479 H   0  0  0  0  0  0  0  0  0  0  0  0
   -1.8061    1.5619   -1.0892 H   0  0  0  0  0  0  0  0  0  0  0  0
   -0.9828    0.4441    1.2596 H   0  0  0  0  0  0  0  0  0  0  0  0
  1  2  1  0
  1  4  2  0
  1  9  1  0
  2  3  1  0
  2  5  1  0
  2 12  1  0
  3  6  2  0
  3 10  1  0
  5  7  1  0
  8 11  1  0
M  END
