O=CC(C=O)O.[H][H]_7
     RDKit          3D

 12 10  0  0  0  0  0  0  0  0999 V2000
   -0.0415   -0.7381    1.4756 C   0  0  0  0  0  0  0  0  0  0  0  0
    0.2005    0.6948    1.1244 C   0  0  0  0  0  0  0  0  0  0  0  0
   -0.6536    1.6231    1.9320 C   0  0  0  0  0  0  0  0  0  0  0  0
    0.2113   -1.6024    0.6958 O   0  0  0  0  0  0  0  0  0  0  0  0
   -0.0129    0.8672   -0.2672 O   0  0  0  0  0  0  0  0  0  0  0  0
   -0.6976    1.5930    3.1240 O   0  0  0  0  0  0  0  0  0  0  0  0
    0.1948    0.0261   -0.7292 H   0  0  0  0  0  0  0  0  0  0  0  0
    0.9142    3.4340   -0.5213 H   0  0  0  0  0  0  0  0  0  0  0  0
   -0.4054   -1.0181    2.4583 H   0  0  0  0  0  0  0  0  0  0  0  0
   -1.2612    2.3663    1.4276 H   0  0  0  0  0  0  0  0  0  0  0  0
    1.1361    3.6216    0.1993 H   0  0  0  0  0  0  0  0  0  0  0  0
    1.2616    0.9358    1.3104 H   0  0  0  0  0  0  0  0  0  0  0  0
  1  2  1  0
  1  4  2  0
  1  9  1  0
  2  3  1  0
  2  5  1  0
  2 12  1  0
  3  6  2  0
  3 10  1  0
  5  7  1  0
  8 11  1  0
M  END
