O=CC(C=O)O.[H][H]_17
     RDKit          3D

 12 10  0  0  0  0  0  0  0  0999 V2000
   -0.3850   -0.1599    0.5207 C   0  0  0  0  0  0  0  0  0  0  0  0
    0.3703    0.3658    1.7032 C   0  0  0  0  0  0  0  0  0  0  0  0
   -0.2676    1.6093    2.2432 C   0  0  0  0  0  0  0  0  0  0  0  0
    0.0311   -0.0119   -0.5853 O   0  0  0  0  0  0  0  0  0  0  0  0
    1.7202    0.5920    1.3255 O   0  0  0  0  0  0  0  0  0  0  0  0
   -1.3986    1.6435    2.6220 O   0  0  0  0  0  0  0  0  0  0  0  0
    1.7627    0.7330    0.3547 H   0  0  0  0  0  0  0  0  0  0  0  0
    0.1038    2.9157   -0.4739 H   0  0  0  0  0  0  0  0  0  0  0  0
   -1.3749   -0.5876    0.6351 H   0  0  0  0  0  0  0  0  0  0  0  0
    0.3069    2.5268    2.3043 H   0  0  0  0  0  0  0  0  0  0  0  0
   -0.4256    2.5686   -0.9244 H   0  0  0  0  0  0  0  0  0  0  0  0
    0.4028   -0.3919    2.5048 H   0  0  0  0  0  0  0  0  0  0  0  0
  1  2  1  0
  1  4  2  0
  1  9  1  0
  2  3  1  0
  2  5  1  0
  2 12  1  0
  3  6  2  0
  3 10  1  0
  5  7  1  0
  8 11  1  0
M  END
