O=CC(C=O)O.[H][H]_5
     RDKit          3D

 12 10  0  0  0  0  0  0  0  0999 V2000
    0.6879    1.5981    0.5591 C   0  0  0  0  0  0  0  0  0  0  0  0
    0.0672    0.6603    1.5443 C   0  0  0  0  0  0  0  0  0  0  0  0
   -0.1569    1.3110    2.8747 C   0  0  0  0  0  0  0  0  0  0  0  0
    1.3008    1.1779   -0.3719 O   0  0  0  0  0  0  0  0  0  0  0  0
    0.8866   -0.4917    1.6582 O   0  0  0  0  0  0  0  0  0  0  0  0
   -0.7402    2.3441    3.0021 O   0  0  0  0  0  0  0  0  0  0  0  0
    1.3539   -0.6371    0.8070 H   0  0  0  0  0  0  0  0  0  0  0  0
   -0.9043    1.0197   -1.9509 H   0  0  0  0  0  0  0  0  0  0  0  0
    0.5518    2.6706    0.6475 H   0  0  0  0  0  0  0  0  0  0  0  0
    0.2132    0.8311    3.7739 H   0  0  0  0  0  0  0  0  0  0  0  0
   -1.5095    1.0043   -1.4640 H   0  0  0  0  0  0  0  0  0  0  0  0
   -0.9042    0.3151    1.1497 H   0  0  0  0  0  0  0  0  0  0  0  0
  1  2  1  0
  1  4  2  0
  1  9  1  0
  2  3  1  0
  2  5  1  0
  2 12  1  0
  3  6  2  0
  3 10  1  0
  5  7  1  0
  8 11  1  0
M  END
