O=CC(C=O)O.[H][H]_6
     RDKit          3D

 12 10  0  0  0  0  0  0  0  0999 V2000
    0.0066    2.0056    0.4946 C   0  0  0  0  0  0  0  0  0  0  0  0
    0.4932    0.8212    1.2724 C   0  0  0  0  0  0  0  0  0  0  0  0
   -0.0585    0.7980    2.6615 C   0  0  0  0  0  0  0  0  0  0  0  0
   -1.1489    2.2845    0.3912 O   0  0  0  0  0  0  0  0  0  0  0  0
    1.9094    0.7891    1.3418 O   0  0  0  0  0  0  0  0  0  0  0  0
    0.5069    0.2053    3.5264 O   0  0  0  0  0  0  0  0  0  0  0  0
    2.1789    0.3090    2.1549 H   0  0  0  0  0  0  0  0  0  0  0  0
   -1.7545    0.6515   -1.5966 H   0  0  0  0  0  0  0  0  0  0  0  0
    0.7225    2.6428   -0.0127 H   0  0  0  0  0  0  0  0  0  0  0  0
   -1.0024    1.2785    2.8951 H   0  0  0  0  0  0  0  0  0  0  0  0
   -1.1921    0.1180   -1.6471 H   0  0  0  0  0  0  0  0  0  0  0  0
    0.1852   -0.1002    0.7483 H   0  0  0  0  0  0  0  0  0  0  0  0
  1  2  1  0
  1  4  2  0
  1  9  1  0
  2  3  1  0
  2  5  1  0
  2 12  1  0
  3  6  2  0
  3 10  1  0
  5  7  1  0
  8 11  1  0
M  END
