O=CC(C=O)O.[H][H]_14
     RDKit          3D

 12 10  0  0  0  0  0  0  0  0999 V2000
   -0.2780   -0.8305    0.9297 C   0  0  0  0  0  0  0  0  0  0  0  0
    0.3341    0.3524    1.6091 C   0  0  0  0  0  0  0  0  0  0  0  0
    0.0366    1.6306    0.8874 C   0  0  0  0  0  0  0  0  0  0  0  0
    0.1697   -1.9217    1.0962 O   0  0  0  0  0  0  0  0  0  0  0  0
    1.7304    0.1366    1.7337 O   0  0  0  0  0  0  0  0  0  0  0  0
   -1.0693    1.9658    0.5897 O   0  0  0  0  0  0  0  0  0  0  0  0
    1.9004   -0.8283    1.7986 H   0  0  0  0  0  0  0  0  0  0  0  0
   -0.4449    4.8049    0.0417 H   0  0  0  0  0  0  0  0  0  0  0  0
   -1.1641   -0.7231    0.3134 H   0  0  0  0  0  0  0  0  0  0  0  0
    0.8502    2.2970    0.6230 H   0  0  0  0  0  0  0  0  0  0  0  0
   -1.1544    4.4965   -0.0289 H   0  0  0  0  0  0  0  0  0  0  0  0
   -0.0643    0.4229    2.6362 H   0  0  0  0  0  0  0  0  0  0  0  0
  1  2  1  0
  1  4  2  0
  1  9  1  0
  2  3  1  0
  2  5  1  0
  2 12  1  0
  3  6  2  0
  3 10  1  0
  5  7  1  0
  8 11  1  0
M  END
