O=CC(C=O)O.[H][H]_0
     RDKit          3D

 12 10  0  0  0  0  0  0  0  0999 V2000
   -0.5541   -0.3118    0.5625 C   0  0  0  0  0  0  0  0  0  0  0  0
    0.4612    0.3651    1.4315 C   0  0  0  0  0  0  0  0  0  0  0  0
   -0.1135    1.5418    2.1527 C   0  0  0  0  0  0  0  0  0  0  0  0
   -1.6191   -0.6686    0.9654 O   0  0  0  0  0  0  0  0  0  0  0  0
    1.5869    0.7927    0.6822 O   0  0  0  0  0  0  0  0  0  0  0  0
    0.5941    2.4195    2.5374 O   0  0  0  0  0  0  0  0  0  0  0  0
    2.0002    1.5596    1.1353 H   0  0  0  0  0  0  0  0  0  0  0  0
   -0.7652    2.5037   -0.6878 H   0  0  0  0  0  0  0  0  0  0  0  0
   -0.3243   -0.5020   -0.4800 H   0  0  0  0  0  0  0  0  0  0  0  0
   -1.1733    1.5955    2.3772 H   0  0  0  0  0  0  0  0  0  0  0  0
   -0.0832    2.8698   -0.6190 H   0  0  0  0  0  0  0  0  0  0  0  0
    0.8365   -0.3621    2.1724 H   0  0  0  0  0  0  0  0  0  0  0  0
  1  2  1  0
  1  4  2  0
  1  9  1  0
  2  3  1  0
  2  5  1  0
  2 12  1  0
  3  6  2  0
  3 10  1  0
  5  7  1  0
  8 11  1  0
M  END
