O=CC(C=O)O.[H][H]_3
     RDKit          3D

 12 10  0  0  0  0  0  0  0  0999 V2000
   -0.1162    1.9526    0.7295 C   0  0  0  0  0  0  0  0  0  0  0  0
    0.2112    0.7225    1.5140 C   0  0  0  0  0  0  0  0  0  0  0  0
   -0.3568    0.7722    2.8990 C   0  0  0  0  0  0  0  0  0  0  0  0
    0.5632    2.2807   -0.1922 O   0  0  0  0  0  0  0  0  0  0  0  0
    1.6193    0.5533    1.5333 O   0  0  0  0  0  0  0  0  0  0  0  0
   -1.5069    0.9994    3.1213 O   0  0  0  0  0  0  0  0  0  0  0  0
    1.9990    0.9392    0.7141 H   0  0  0  0  0  0  0  0  0  0  0  0
   -0.2073    0.6344   -2.0661 H   0  0  0  0  0  0  0  0  0  0  0  0
   -1.0004    2.5390    0.9550 H   0  0  0  0  0  0  0  0  0  0  0  0
    0.2900    0.5869    3.7494 H   0  0  0  0  0  0  0  0  0  0  0  0
   -0.4465   -0.0187   -1.7199 H   0  0  0  0  0  0  0  0  0  0  0  0
   -0.2022   -0.1580    0.9921 H   0  0  0  0  0  0  0  0  0  0  0  0
  1  2  1  0
  1  4  2  0
  1  9  1  0
  2  3  1  0
  2  5  1  0
  2 12  1  0
  3  6  2  0
  3 10  1  0
  5  7  1  0
  8 11  1  0
M  END
