O=CC(C=O)O.[H][H]_11
     RDKit          3D

 12 10  0  0  0  0  0  0  0  0999 V2000
   -0.4285   -0.7041    1.1322 C   0  0  0  0  0  0  0  0  0  0  0  0
    0.3154    0.5536    1.4485 C   0  0  0  0  0  0  0  0  0  0  0  0
   -0.5623    1.5758    2.1029 C   0  0  0  0  0  0  0  0  0  0  0  0
   -0.0408   -1.4366    0.2766 O   0  0  0  0  0  0  0  0  0  0  0  0
    0.8986    1.0525    0.2557 O   0  0  0  0  0  0  0  0  0  0  0  0
   -1.2233    1.3414    3.0682 O   0  0  0  0  0  0  0  0  0  0  0  0
    1.0903    0.3002   -0.3455 H   0  0  0  0  0  0  0  0  0  0  0  0
    0.4016    3.6387   -0.7161 H   0  0  0  0  0  0  0  0  0  0  0  0
   -1.3034   -0.9938    1.7042 H   0  0  0  0  0  0  0  0  0  0  0  0
   -0.6051    2.5817    1.7001 H   0  0  0  0  0  0  0  0  0  0  0  0
    1.1524    3.5788   -0.5257 H   0  0  0  0  0  0  0  0  0  0  0  0
    1.1514    0.3151    2.1289 H   0  0  0  0  0  0  0  0  0  0  0  0
  1  2  1  0
  1  4  2  0
  1  9  1  0
  2  3  1  0
  2  5  1  0
  2 12  1  0
  3  6  2  0
  3 10  1  0
  5  7  1  0
  8 11  1  0
M  END
