O=CC(C=O)O.[H][H]_16
     RDKit          3D

 12 10  0  0  0  0  0  0  0  0999 V2000
    0.2447    0.4703    0.3971 C   0  0  0  0  0  0  0  0  0  0  0  0
    0.2745    0.2919    1.8811 C   0  0  0  0  0  0  0  0  0  0  0  0
    0.0592    1.5847    2.6064 C   0  0  0  0  0  0  0  0  0  0  0  0
    0.7842   -0.3154   -0.3173 O   0  0  0  0  0  0  0  0  0  0  0  0
    1.5054   -0.3117    2.2447 O   0  0  0  0  0  0  0  0  0  0  0  0
   -0.8640    2.3075    2.3847 O   0  0  0  0  0  0  0  0  0  0  0  0
    1.8178   -0.8731    1.5022 H   0  0  0  0  0  0  0  0  0  0  0  0
   -1.2760    2.7444   -2.2635 H   0  0  0  0  0  0  0  0  0  0  0  0
   -0.3049    1.2889   -0.0549 H   0  0  0  0  0  0  0  0  0  0  0  0
    0.7590    1.8886    3.3769 H   0  0  0  0  0  0  0  0  0  0  0  0
   -1.6338    3.1438   -1.7014 H   0  0  0  0  0  0  0  0  0  0  0  0
   -0.5198   -0.4166    2.1738 H   0  0  0  0  0  0  0  0  0  0  0  0
  1  2  1  0
  1  4  2  0
  1  9  1  0
  2  3  1  0
  2  5  1  0
  2 12  1  0
  3  6  2  0
  3 10  1  0
  5  7  1  0
  8 11  1  0
M  END
