O=CC(C=O)O.[H][H]_2
     RDKit          3D

 12 10  0  0  0  0  0  0  0  0999 V2000
   -0.0355   -0.9226    1.4970 C   0  0  0  0  0  0  0  0  0  0  0  0
    0.1916    0.4625    0.9735 C   0  0  0  0  0  0  0  0  0  0  0  0
   -0.7629    1.4489    1.5657 C   0  0  0  0  0  0  0  0  0  0  0  0
   -0.0793   -1.1773    2.6619 O   0  0  0  0  0  0  0  0  0  0  0  0
    0.0812    0.5105   -0.4397 O   0  0  0  0  0  0  0  0  0  0  0  0
   -1.0147    2.4641    0.9958 O   0  0  0  0  0  0  0  0  0  0  0  0
   -0.1897    1.4151   -0.7087 H   0  0  0  0  0  0  0  0  0  0  0  0
    1.1180    3.8958    0.6688 H   0  0  0  0  0  0  0  0  0  0  0  0
   -0.1592   -1.7442    0.8001 H   0  0  0  0  0  0  0  0  0  0  0  0
   -1.2044    1.2807    2.5421 H   0  0  0  0  0  0  0  0  0  0  0  0
    1.6775    3.4006    0.4561 H   0  0  0  0  0  0  0  0  0  0  0  0
    1.2236    0.7693    1.2172 H   0  0  0  0  0  0  0  0  0  0  0  0
  1  2  1  0
  1  4  2  0
  1  9  1  0
  2  3  1  0
  2  5  1  0
  2 12  1  0
  3  6  2  0
  3 10  1  0
  5  7  1  0
  8 11  1  0
M  END
