OC(C(=O)C)O_3
     RDKit          3D

 12 11  0  0  0  0  0  0  0  0999 V2000
    0.6750   -0.7335    1.1849 C   0  0  0  0  0  0  0  0  0  0  0  0
    0.6018    1.3931   -0.2955 C   0  0  0  0  0  0  0  0  0  0  0  0
    0.9844    0.7338    0.9770 C   0  0  0  0  0  0  0  0  0  0  0  0
   -0.2150   -1.2369    0.2029 O   0  0  0  0  0  0  0  0  0  0  0  0
    0.2267   -0.9285    2.5117 O   0  0  0  0  0  0  0  0  0  0  0  0
    1.5388    1.3082    1.8720 O   0  0  0  0  0  0  0  0  0  0  0  0
    0.6930   -0.2914    3.0975 H   0  0  0  0  0  0  0  0  0  0  0  0
   -0.6643   -2.0236    0.5701 H   0  0  0  0  0  0  0  0  0  0  0  0
    1.6142   -1.3037    1.0830 H   0  0  0  0  0  0  0  0  0  0  0  0
    1.0370    0.8705   -1.1483 H   0  0  0  0  0  0  0  0  0  0  0  0
    0.9533    2.4257   -0.3024 H   0  0  0  0  0  0  0  0  0  0  0  0
   -0.4828    1.3941   -0.4120 H   0  0  0  0  0  0  0  0  0  0  0  0
  1  3  1  0
  1  4  1  0
  1  5  1  0
  1  9  1  0
  2  3  1  0
  2 10  1  0
  2 11  1  0
  2 12  1  0
  3  6  2  0
  4  8  1  0
  5  7  1  0
M  END
