OC(C(=O)C)O_6
     RDKit          3D

 12 11  0  0  0  0  0  0  0  0999 V2000
    0.5731   -0.7462    1.0274 C   0  0  0  0  0  0  0  0  0  0  0  0
    0.7321    1.6456    0.0937 C   0  0  0  0  0  0  0  0  0  0  0  0
    0.9744    0.1978   -0.0920 C   0  0  0  0  0  0  0  0  0  0  0  0
   -0.8345   -0.7683    1.1715 O   0  0  0  0  0  0  0  0  0  0  0  0
    1.2711   -0.4271    2.2168 O   0  0  0  0  0  0  0  0  0  0  0  0
    1.4645   -0.2479   -1.0926 O   0  0  0  0  0  0  0  0  0  0  0  0
    0.9775   -0.9995    2.9561 H   0  0  0  0  0  0  0  0  0  0  0  0
   -1.0987   -1.3385    1.9237 H   0  0  0  0  0  0  0  0  0  0  0  0
    0.8888   -1.7591    0.7215 H   0  0  0  0  0  0  0  0  0  0  0  0
    1.6505    2.2058   -0.0858 H   0  0  0  0  0  0  0  0  0  0  0  0
    0.3897    1.8515    1.1092 H   0  0  0  0  0  0  0  0  0  0  0  0
   -0.0265    1.9936   -0.6084 H   0  0  0  0  0  0  0  0  0  0  0  0
  1  3  1  0
  1  4  1  0
  1  5  1  0
  1  9  1  0
  2  3  1  0
  2 10  1  0
  2 11  1  0
  2 12  1  0
  3  6  2  0
  4  8  1  0
  5  7  1  0
M  END
