OC(C(=O)C)O
     RDKit          3D

 12 11  0  0  0  0  0  0  0  0999 V2000
    0.4584   -0.5567    1.2117 C   0  0  0  0  0  0  0  0  0  0  0  0
    0.9661    1.4510   -0.3705 C   0  0  0  0  0  0  0  0  0  0  0  0
    0.4179    0.9155    0.9180 C   0  0  0  0  0  0  0  0  0  0  0  0
   -0.8520   -1.0220    1.3956 O   0  0  0  0  0  0  0  0  0  0  0  0
    1.2088   -0.7694    2.3775 O   0  0  0  0  0  0  0  0  0  0  0  0
   -0.0660    1.6838    1.7360 O   0  0  0  0  0  0  0  0  0  0  0  0
    1.3833   -1.7453    2.4278 H   0  0  0  0  0  0  0  0  0  0  0  0
   -0.8045   -2.0134    1.3855 H   0  0  0  0  0  0  0  0  0  0  0  0
    0.9334   -1.0879    0.3514 H   0  0  0  0  0  0  0  0  0  0  0  0
    2.0440    1.1980   -0.4506 H   0  0  0  0  0  0  0  0  0  0  0  0
    0.8529    2.5553   -0.4169 H   0  0  0  0  0  0  0  0  0  0  0  0
    0.4197    0.9989   -1.2245 H   0  0  0  0  0  0  0  0  0  0  0  0
  1  3  1  0
  1  4  1  0
  1  5  1  0
  1  9  1  0
  2  3  1  0
  2 10  1  0
  2 11  1  0
  2 12  1  0
  3  6  2  0
  4  8  1  0
  5  7  1  0
M  END
