OC(C(=O)C)O_7
     RDKit          3D

 12 11  0  0  0  0  0  0  0  0999 V2000
    0.3955   -0.7133    1.3873 C   0  0  0  0  0  0  0  0  0  0  0  0
    0.8504    1.4635    0.0829 C   0  0  0  0  0  0  0  0  0  0  0  0
    0.7156   -0.0109    0.0820 C   0  0  0  0  0  0  0  0  0  0  0  0
   -0.9904   -0.6129    1.6594 O   0  0  0  0  0  0  0  0  0  0  0  0
    1.2379   -0.2516    2.4308 O   0  0  0  0  0  0  0  0  0  0  0  0
    0.8248   -0.6706   -0.9146 O   0  0  0  0  0  0  0  0  0  0  0  0
    2.1827   -0.4097    2.2149 H   0  0  0  0  0  0  0  0  0  0  0  0
   -1.5133   -0.9241    0.8898 H   0  0  0  0  0  0  0  0  0  0  0  0
    0.6063   -1.7911    1.2709 H   0  0  0  0  0  0  0  0  0  0  0  0
    1.8355    1.7547   -0.2830 H   0  0  0  0  0  0  0  0  0  0  0  0
    0.7176    1.8631    1.0900 H   0  0  0  0  0  0  0  0  0  0  0  0
    0.0994    1.9105   -0.5694 H   0  0  0  0  0  0  0  0  0  0  0  0
  1  3  1  0
  1  4  1  0
  1  5  1  0
  1  9  1  0
  2  3  1  0
  2 10  1  0
  2 11  1  0
  2 12  1  0
  3  6  2  0
  4  8  1  0
  5  7  1  0
M  END
