OC(C(=O)C)O_4
     RDKit          3D

 12 11  0  0  0  0  0  0  0  0999 V2000
    0.5199   -0.7448    1.0375 C   0  0  0  0  0  0  0  0  0  0  0  0
    0.8139    1.4452   -0.3182 C   0  0  0  0  0  0  0  0  0  0  0  0
    0.8951    0.7229    0.9736 C   0  0  0  0  0  0  0  0  0  0  0  0
   -0.8863   -0.8959    1.0296 O   0  0  0  0  0  0  0  0  0  0  0  0
    1.1420   -1.3356    2.1559 O   0  0  0  0  0  0  0  0  0  0  0  0
    1.2326    1.2615    1.9889 O   0  0  0  0  0  0  0  0  0  0  0  0
    1.0674   -0.7045    2.9030 H   0  0  0  0  0  0  0  0  0  0  0  0
   -1.1116   -1.7883    1.3612 H   0  0  0  0  0  0  0  0  0  0  0  0
    0.9110   -1.2695    0.1510 H   0  0  0  0  0  0  0  0  0  0  0  0
    0.3049    2.3992   -0.1762 H   0  0  0  0  0  0  0  0  0  0  0  0
    0.2600    0.8688   -1.0605 H   0  0  0  0  0  0  0  0  0  0  0  0
    1.8130    1.6489   -0.7049 H   0  0  0  0  0  0  0  0  0  0  0  0
  1  3  1  0
  1  4  1  0
  1  5  1  0
  1  9  1  0
  2  3  1  0
  2 10  1  0
  2 11  1  0
  2 12  1  0
  3  6  2  0
  4  8  1  0
  5  7  1  0
M  END
