OC(C(=O)C)O_5
     RDKit          3D

 12 11  0  0  0  0  0  0  0  0999 V2000
    0.8368   -0.7610    1.1914 C   0  0  0  0  0  0  0  0  0  0  0  0
    0.5379    1.3364   -0.3129 C   0  0  0  0  0  0  0  0  0  0  0  0
    0.8281    0.7453    1.0150 C   0  0  0  0  0  0  0  0  0  0  0  0
    0.0953   -1.4264    0.1808 O   0  0  0  0  0  0  0  0  0  0  0  0
    0.4028   -1.0774    2.4997 O   0  0  0  0  0  0  0  0  0  0  0  0
    1.0780    1.4166    1.9765 O   0  0  0  0  0  0  0  0  0  0  0  0
    0.7169   -0.3792    3.1165 H   0  0  0  0  0  0  0  0  0  0  0  0
   -0.7991   -1.6054    0.5329 H   0  0  0  0  0  0  0  0  0  0  0  0
    1.8751   -1.1211    1.0982 H   0  0  0  0  0  0  0  0  0  0  0  0
    0.3268    0.5588   -1.0488 H   0  0  0  0  0  0  0  0  0  0  0  0
    1.3894    1.9227   -0.6597 H   0  0  0  0  0  0  0  0  0  0  0  0
   -0.3260    1.9985   -0.2487 H   0  0  0  0  0  0  0  0  0  0  0  0
  1  3  1  0
  1  4  1  0
  1  5  1  0
  1  9  1  0
  2  3  1  0
  2 10  1  0
  2 11  1  0
  2 12  1  0
  3  6  2  0
  4  8  1  0
  5  7  1  0
M  END
