from_xyz
     RDKit          3D

 12 11  0  0  0  0  0  0  0  0999 V2000
    1.2479    1.4513   -2.1575 C   0  0  0  0  0  0  0  0  0  0  0  0
    0.5215    0.5766   -1.1314 C   0  0  0  0  0  0  0  0  0  0  0  0
    1.2853   -0.6845   -0.8583 C   0  0  0  0  0  0  0  0  0  0  0  0
    0.4943    2.6044   -2.4450 O   0  0  0  0  0  0  0  0  0  0  0  0
    0.7361    3.4676   -1.4746 O   0  0  0  0  0  0  0  0  0  0  0  0
    2.4119   -0.6388   -0.3898 O   0  0  0  0  0  0  0  0  0  0  0  0
    1.3022    4.1669   -1.8917 H   0  0  0  0  0  0  0  0  0  0  0  0
    1.3722    0.8801   -3.1025 H   0  0  0  0  0  0  0  0  0  0  0  0
    2.2745    1.7164   -1.8109 H   0  0  0  0  0  0  0  0  0  0  0  0
    0.8324   -1.6478   -1.0690 H   0  0  0  0  0  0  0  0  0  0  0  0
    0.3940    1.1353   -0.1794 H   0  0  0  0  0  0  0  0  0  0  0  0
   -0.4833    0.3121   -1.5257 H   0  0  0  0  0  0  0  0  0  0  0  0
  1  2  1  0
  1  4  1  0
  1  8  1  0
  1  9  1  0
  2  3  1  0
  2 11  1  0
  2 12  1  0
  3  6  2  0
  3 10  1  0
  4  5  1  0
  5  7  1  0
M  END
