from_xyz_16
     RDKit          3D

 12 11  0  0  0  0  0  0  0  0999 V2000
    1.0167    1.4331   -2.1450 C   0  0  0  0  0  0  0  0  0  0  0  0
    0.4341    0.1635   -1.5454 C   0  0  0  0  0  0  0  0  0  0  0  0
    1.3363   -0.4032   -0.5118 C   0  0  0  0  0  0  0  0  0  0  0  0
    1.0577    2.4788   -1.2153 O   0  0  0  0  0  0  0  0  0  0  0  0
    1.7171    3.6434   -1.8056 O   0  0  0  0  0  0  0  0  0  0  0  0
    2.2163   -1.1730   -0.7548 O   0  0  0  0  0  0  0  0  0  0  0  0
    1.0939    4.3724   -1.6511 H   0  0  0  0  0  0  0  0  0  0  0  0
    0.4406    1.7956   -3.0055 H   0  0  0  0  0  0  0  0  0  0  0  0
    2.0539    1.2769   -2.4705 H   0  0  0  0  0  0  0  0  0  0  0  0
    1.2929   -0.0305    0.5058 H   0  0  0  0  0  0  0  0  0  0  0  0
   -0.5510    0.3783   -1.1152 H   0  0  0  0  0  0  0  0  0  0  0  0
    0.2804   -0.5958   -2.3214 H   0  0  0  0  0  0  0  0  0  0  0  0
  1  2  1  0
  1  4  1  0
  1  8  1  0
  1  9  1  0
  2  3  1  0
  2 11  1  0
  2 12  1  0
  3  6  2  0
  3 10  1  0
  4  5  1  0
  5  7  1  0
M  END
