from_xyz_13
     RDKit          3D

 12 11  0  0  0  0  0  0  0  0999 V2000
    0.8704    1.4414   -2.1649 C   0  0  0  0  0  0  0  0  0  0  0  0
    0.4246    0.1692   -1.4598 C   0  0  0  0  0  0  0  0  0  0  0  0
    1.4653   -0.3517   -0.5403 C   0  0  0  0  0  0  0  0  0  0  0  0
    1.1660    2.4642   -1.2553 O   0  0  0  0  0  0  0  0  0  0  0  0
    1.8479    3.5609   -1.9419 O   0  0  0  0  0  0  0  0  0  0  0  0
    1.5179   -1.4798   -0.1508 O   0  0  0  0  0  0  0  0  0  0  0  0
    1.3131    4.3423   -1.7259 H   0  0  0  0  0  0  0  0  0  0  0  0
    0.1090    1.8309   -2.8518 H   0  0  0  0  0  0  0  0  0  0  0  0
    1.7891    1.2761   -2.7422 H   0  0  0  0  0  0  0  0  0  0  0  0
    2.2003    0.3352   -0.1349 H   0  0  0  0  0  0  0  0  0  0  0  0
   -0.4869    0.3649   -0.8838 H   0  0  0  0  0  0  0  0  0  0  0  0
    0.1723   -0.6140   -2.1845 H   0  0  0  0  0  0  0  0  0  0  0  0
  1  2  1  0
  1  4  1  0
  1  8  1  0
  1  9  1  0
  2  3  1  0
  2 11  1  0
  2 12  1  0
  3  6  2  0
  3 10  1  0
  4  5  1  0
  5  7  1  0
M  END
