from_xyz_4
     RDKit          3D

 12 11  0  0  0  0  0  0  0  0999 V2000
    0.4600    2.0520   -1.3676 C   0  0  0  0  0  0  0  0  0  0  0  0
    0.3130    0.5721   -1.0393 C   0  0  0  0  0  0  0  0  0  0  0  0
    1.5490   -0.2129   -1.3086 C   0  0  0  0  0  0  0  0  0  0  0  0
    0.8016    2.2582   -2.7128 O   0  0  0  0  0  0  0  0  0  0  0  0
    2.2469    2.3907   -2.8684 O   0  0  0  0  0  0  0  0  0  0  0  0
    2.6632    0.2078   -1.2283 O   0  0  0  0  0  0  0  0  0  0  0  0
    2.5825    1.6040   -2.3975 H   0  0  0  0  0  0  0  0  0  0  0  0
    1.2531    2.5175   -0.7681 H   0  0  0  0  0  0  0  0  0  0  0  0
   -0.4686    2.6085   -1.1832 H   0  0  0  0  0  0  0  0  0  0  0  0
    1.4693   -1.2683   -1.5445 H   0  0  0  0  0  0  0  0  0  0  0  0
    0.0331    0.4475    0.0138 H   0  0  0  0  0  0  0  0  0  0  0  0
   -0.5141    0.1624   -1.6315 H   0  0  0  0  0  0  0  0  0  0  0  0
  1  2  1  0
  1  4  1  0
  1  8  1  0
  1  9  1  0
  2  3  1  0
  2 11  1  0
  2 12  1  0
  3  6  2  0
  3 10  1  0
  4  5  1  0
  5  7  1  0
M  END
