from_xyz_2
     RDKit          3D

 12 11  0  0  0  0  0  0  0  0999 V2000
    1.3668    1.3747   -2.2718 C   0  0  0  0  0  0  0  0  0  0  0  0
    0.5784    0.6308   -1.2166 C   0  0  0  0  0  0  0  0  0  0  0  0
    1.2495   -0.6342   -0.8203 C   0  0  0  0  0  0  0  0  0  0  0  0
    0.7497    2.5883   -2.5774 O   0  0  0  0  0  0  0  0  0  0  0  0
    0.4996    3.3383   -1.3535 O   0  0  0  0  0  0  0  0  0  0  0  0
    2.4321   -0.7447   -0.6984 O   0  0  0  0  0  0  0  0  0  0  0  0
    0.9820    4.1703   -1.4894 H   0  0  0  0  0  0  0  0  0  0  0  0
    1.4576    0.7954   -3.1992 H   0  0  0  0  0  0  0  0  0  0  0  0
    2.3803    1.5989   -1.9137 H   0  0  0  0  0  0  0  0  0  0  0  0
    0.6604   -1.5089   -0.5701 H   0  0  0  0  0  0  0  0  0  0  0  0
    0.4710    1.2843   -0.3425 H   0  0  0  0  0  0  0  0  0  0  0  0
   -0.4384    0.4464   -1.5828 H   0  0  0  0  0  0  0  0  0  0  0  0
  1  2  1  0
  1  4  1  0
  1  8  1  0
  1  9  1  0
  2  3  1  0
  2 11  1  0
  2 12  1  0
  3  6  2  0
  3 10  1  0
  4  5  1  0
  5  7  1  0
M  END
