from_xyz_14
     RDKit          3D

 12 11  0  0  0  0  0  0  0  0999 V2000
    1.1684    1.8200   -1.1838 C   0  0  0  0  0  0  0  0  0  0  0  0
    0.7677    0.4726   -0.6015 C   0  0  0  0  0  0  0  0  0  0  0  0
    1.1419   -0.6547   -1.4903 C   0  0  0  0  0  0  0  0  0  0  0  0
    0.5390    2.0692   -2.4092 O   0  0  0  0  0  0  0  0  0  0  0  0
    0.9297    3.3866   -2.9108 O   0  0  0  0  0  0  0  0  0  0  0  0
    1.3666   -1.7663   -1.1146 O   0  0  0  0  0  0  0  0  0  0  0  0
    1.2479    3.2122   -3.8119 H   0  0  0  0  0  0  0  0  0  0  0  0
    2.2482    1.8730   -1.3675 H   0  0  0  0  0  0  0  0  0  0  0  0
    0.8996    2.6566   -0.5256 H   0  0  0  0  0  0  0  0  0  0  0  0
    1.1610   -0.4933   -2.5620 H   0  0  0  0  0  0  0  0  0  0  0  0
    1.2345    0.3152    0.3781 H   0  0  0  0  0  0  0  0  0  0  0  0
   -0.3156    0.4486   -0.4366 H   0  0  0  0  0  0  0  0  0  0  0  0
  1  2  1  0
  1  4  1  0
  1  8  1  0
  1  9  1  0
  2  3  1  0
  2 11  1  0
  2 12  1  0
  3  6  2  0
  3 10  1  0
  4  5  1  0
  5  7  1  0
M  END
