from_xyz_15
     RDKit          3D

 12 11  0  0  0  0  0  0  0  0999 V2000
    1.2590    1.5554   -1.7430 C   0  0  0  0  0  0  0  0  0  0  0  0
    0.5866    0.4660   -0.9235 C   0  0  0  0  0  0  0  0  0  0  0  0
    1.2703   -0.8487   -1.0061 C   0  0  0  0  0  0  0  0  0  0  0  0
    0.5853    2.7789   -1.6417 O   0  0  0  0  0  0  0  0  0  0  0  0
    1.3128    3.8101   -2.3793 O   0  0  0  0  0  0  0  0  0  0  0  0
    0.8211   -1.8621   -0.5618 O   0  0  0  0  0  0  0  0  0  0  0  0
    0.6443    4.1929   -2.9710 H   0  0  0  0  0  0  0  0  0  0  0  0
    1.2987    1.2972   -2.8079 H   0  0  0  0  0  0  0  0  0  0  0  0
    2.2873    1.7405   -1.4075 H   0  0  0  0  0  0  0  0  0  0  0  0
    2.2485   -0.9173   -1.4662 H   0  0  0  0  0  0  0  0  0  0  0  0
    0.5267    0.7782    0.1253 H   0  0  0  0  0  0  0  0  0  0  0  0
   -0.4517    0.3484   -1.2530 H   0  0  0  0  0  0  0  0  0  0  0  0
  1  2  1  0
  1  4  1  0
  1  8  1  0
  1  9  1  0
  2  3  1  0
  2 11  1  0
  2 12  1  0
  3  6  2  0
  3 10  1  0
  4  5  1  0
  5  7  1  0
M  END
