from_xyz_10
     RDKit          3D

 12 11  0  0  0  0  0  0  0  0999 V2000
    1.2673    1.5871   -1.5844 C   0  0  0  0  0  0  0  0  0  0  0  0
    0.4538    0.4079   -1.0847 C   0  0  0  0  0  0  0  0  0  0  0  0
    1.2710   -0.8318   -1.0478 C   0  0  0  0  0  0  0  0  0  0  0  0
    0.4997    2.7521   -1.7055 O   0  0  0  0  0  0  0  0  0  0  0  0
    1.3438    3.8556   -2.1559 O   0  0  0  0  0  0  0  0  0  0  0  0
    2.0324   -1.1413   -1.9139 O   0  0  0  0  0  0  0  0  0  0  0  0
    0.9271    4.1486   -2.9831 H   0  0  0  0  0  0  0  0  0  0  0  0
    1.7003    1.3768   -2.5704 H   0  0  0  0  0  0  0  0  0  0  0  0
    2.0986    1.8234   -0.9078 H   0  0  0  0  0  0  0  0  0  0  0  0
    1.1616   -1.5369   -0.2320 H   0  0  0  0  0  0  0  0  0  0  0  0
    0.0361    0.6395   -0.0980 H   0  0  0  0  0  0  0  0  0  0  0  0
   -0.4026    0.2586   -1.7522 H   0  0  0  0  0  0  0  0  0  0  0  0
  1  2  1  0
  1  4  1  0
  1  8  1  0
  1  9  1  0
  2  3  1  0
  2 11  1  0
  2 12  1  0
  3  6  2  0
  3 10  1  0
  4  5  1  0
  5  7  1  0
M  END
