from_xyz_5
     RDKit          3D

 12 11  0  0  0  0  0  0  0  0999 V2000
    1.1916    2.0572   -0.9937 C   0  0  0  0  0  0  0  0  0  0  0  0
    0.7885    0.6541   -0.5697 C   0  0  0  0  0  0  0  0  0  0  0  0
    1.1007   -0.3660   -1.5980 C   0  0  0  0  0  0  0  0  0  0  0  0
    0.4986    2.4629   -2.1373 O   0  0  0  0  0  0  0  0  0  0  0  0
    0.9871    1.7547   -3.3184 O   0  0  0  0  0  0  0  0  0  0  0  0
    1.2609   -1.5304   -1.3855 O   0  0  0  0  0  0  0  0  0  0  0  0
    1.1927    2.4666   -3.9448 H   0  0  0  0  0  0  0  0  0  0  0  0
    2.2598    2.1075   -1.2366 H   0  0  0  0  0  0  0  0  0  0  0  0
    0.9855    2.7984   -0.2107 H   0  0  0  0  0  0  0  0  0  0  0  0
    1.1253   -0.0636   -2.6382 H   0  0  0  0  0  0  0  0  0  0  0  0
    1.2869    0.3700    0.3649 H   0  0  0  0  0  0  0  0  0  0  0  0
   -0.2886    0.6283   -0.3677 H   0  0  0  0  0  0  0  0  0  0  0  0
  1  2  1  0
  1  4  1  0
  1  8  1  0
  1  9  1  0
  2  3  1  0
  2 11  1  0
  2 12  1  0
  3  6  2  0
  3 10  1  0
  4  5  1  0
  5  7  1  0
M  END
