from_xyz_7
     RDKit          3D

 12 11  0  0  0  0  0  0  0  0999 V2000
    1.8717    1.5570   -1.9524 C   0  0  0  0  0  0  0  0  0  0  0  0
    1.3679    0.7742   -0.7551 C   0  0  0  0  0  0  0  0  0  0  0  0
    0.5820   -0.4132   -1.1727 C   0  0  0  0  0  0  0  0  0  0  0  0
    0.7989    1.9575   -2.7498 O   0  0  0  0  0  0  0  0  0  0  0  0
   -0.2431    2.5568   -1.9247 O   0  0  0  0  0  0  0  0  0  0  0  0
    0.7024   -1.5076   -0.7087 O   0  0  0  0  0  0  0  0  0  0  0  0
   -0.3931    3.4242   -2.3350 H   0  0  0  0  0  0  0  0  0  0  0  0
    2.5334    0.9492   -2.5820 H   0  0  0  0  0  0  0  0  0  0  0  0
    2.4149    2.4633   -1.6557 H   0  0  0  0  0  0  0  0  0  0  0  0
   -0.1734   -0.2899   -1.9412 H   0  0  0  0  0  0  0  0  0  0  0  0
    2.1975    0.4464   -0.1172 H   0  0  0  0  0  0  0  0  0  0  0  0
    0.7300    1.4217   -0.1413 H   0  0  0  0  0  0  0  0  0  0  0  0
  1  2  1  0
  1  4  1  0
  1  8  1  0
  1  9  1  0
  2  3  1  0
  2 11  1  0
  2 12  1  0
  3  6  2  0
  3 10  1  0
  4  5  1  0
  5  7  1  0
M  END
