C=COC(O)O_9
     RDKit          3D

 12 11  0  0  0  0  0  0  0  0999 V2000
    0.0764    0.7747    1.2967 C   0  0  0  0  0  0  0  0  0  0  0  0
    1.5524   -0.2372   -1.7853 C   0  0  0  0  0  0  0  0  0  0  0  0
    1.0092    0.4258   -0.7735 C   0  0  0  0  0  0  0  0  0  0  0  0
   -0.2550    0.2377    2.5603 O   0  0  0  0  0  0  0  0  0  0  0  0
    0.8150    1.9651    1.4039 O   0  0  0  0  0  0  0  0  0  0  0  0
    0.6842   -0.1645    0.4197 O   0  0  0  0  0  0  0  0  0  0  0  0
    1.6749    1.7453    1.8120 H   0  0  0  0  0  0  0  0  0  0  0  0
   -0.5830    0.9505    3.1475 H   0  0  0  0  0  0  0  0  0  0  0  0
   -0.8777    1.0496    0.8161 H   0  0  0  0  0  0  0  0  0  0  0  0
    0.8078    1.4859   -0.8620 H   0  0  0  0  0  0  0  0  0  0  0  0
    1.8011    0.2475   -2.7076 H   0  0  0  0  0  0  0  0  0  0  0  0
    1.7515   -1.2848   -1.6853 H   0  0  0  0  0  0  0  0  0  0  0  0
  1  4  1  0
  1  5  1  0
  1  6  1  0
  1  9  1  0
  2  3  2  0
  2 11  1  0
  2 12  1  0
  3  6  1  0
  3 10  1  0
  4  8  1  0
  5  7  1  0
M  END
