C=COC(O)O_16
     RDKit          3D

 12 11  0  0  0  0  0  0  0  0999 V2000
    0.5439    1.1883    1.0844 C   0  0  0  0  0  0  0  0  0  0  0  0
    0.5406   -0.2539   -1.3049 C   0  0  0  0  0  0  0  0  0  0  0  0
    1.5774    0.4661   -0.9088 C   0  0  0  0  0  0  0  0  0  0  0  0
    0.0476   -0.0955    1.3958 O   0  0  0  0  0  0  0  0  0  0  0  0
    0.7136    1.9789    2.2365 O   0  0  0  0  0  0  0  0  0  0  0  0
    1.7089    1.1710    0.2620 O   0  0  0  0  0  0  0  0  0  0  0  0
    1.4923    1.6402    2.7188 H   0  0  0  0  0  0  0  0  0  0  0  0
   -0.6212   -0.0188    2.1074 H   0  0  0  0  0  0  0  0  0  0  0  0
   -0.2322    1.7012    0.4932 H   0  0  0  0  0  0  0  0  0  0  0  0
    2.4526    0.5417   -1.5432 H   0  0  0  0  0  0  0  0  0  0  0  0
    0.5380   -0.7720   -2.2408 H   0  0  0  0  0  0  0  0  0  0  0  0
   -0.3048   -0.3516   -0.6577 H   0  0  0  0  0  0  0  0  0  0  0  0
  1  4  1  0
  1  5  1  0
  1  6  1  0
  1  9  1  0
  2  3  2  0
  2 11  1  0
  2 12  1  0
  3  6  1  0
  3 10  1  0
  4  8  1  0
  5  7  1  0
M  END
