C=COC(O)O_2
     RDKit          3D

 12 11  0  0  0  0  0  0  0  0999 V2000
   -0.0297    1.0319    1.2387 C   0  0  0  0  0  0  0  0  0  0  0  0
    1.4781   -0.3142   -1.6930 C   0  0  0  0  0  0  0  0  0  0  0  0
    0.9991    0.4620   -0.7306 C   0  0  0  0  0  0  0  0  0  0  0  0
   -0.6187    0.5746    2.4343 O   0  0  0  0  0  0  0  0  0  0  0  0
    0.9399    2.0328    1.4338 O   0  0  0  0  0  0  0  0  0  0  0  0
    0.4500   -0.0288    0.4252 O   0  0  0  0  0  0  0  0  0  0  0  0
    1.6819    1.6572    1.9481 H   0  0  0  0  0  0  0  0  0  0  0  0
    0.0252    0.0135    2.9104 H   0  0  0  0  0  0  0  0  0  0  0  0
   -0.8485    1.5110    0.6762 H   0  0  0  0  0  0  0  0  0  0  0  0
    1.0349    1.5395   -0.8313 H   0  0  0  0  0  0  0  0  0  0  0  0
    1.9050    0.0948   -2.5862 H   0  0  0  0  0  0  0  0  0  0  0  0
    1.4396   -1.3787   -1.5828 H   0  0  0  0  0  0  0  0  0  0  0  0
  1  4  1  0
  1  5  1  0
  1  6  1  0
  1  9  1  0
  2  3  2  0
  2 11  1  0
  2 12  1  0
  3  6  1  0
  3 10  1  0
  4  8  1  0
  5  7  1  0
M  END
