C=COC(O)O_6
     RDKit          3D

 12 11  0  0  0  0  0  0  0  0999 V2000
    0.2532    1.1381    1.1645 C   0  0  0  0  0  0  0  0  0  0  0  0
    1.2471   -0.3459   -0.8931 C   0  0  0  0  0  0  0  0  0  0  0  0
    0.5872    0.7820   -1.1049 C   0  0  0  0  0  0  0  0  0  0  0  0
   -0.3764   -0.1005    1.4116 O   0  0  0  0  0  0  0  0  0  0  0  0
    1.6074    1.1516    1.5572 O   0  0  0  0  0  0  0  0  0  0  0  0
    0.0688    1.6209   -0.1582 O   0  0  0  0  0  0  0  0  0  0  0  0
    2.0221    1.9887    1.2634 H   0  0  0  0  0  0  0  0  0  0  0  0
   -0.1227   -0.4199    2.3023 H   0  0  0  0  0  0  0  0  0  0  0  0
   -0.2661    1.8743    1.8024 H   0  0  0  0  0  0  0  0  0  0  0  0
    0.4126    1.1211   -2.1192 H   0  0  0  0  0  0  0  0  0  0  0  0
    1.6167   -0.9460   -1.6982 H   0  0  0  0  0  0  0  0  0  0  0  0
    1.4070   -0.6689    0.1149 H   0  0  0  0  0  0  0  0  0  0  0  0
  1  4  1  0
  1  5  1  0
  1  6  1  0
  1  9  1  0
  2  3  2  0
  2 11  1  0
  2 12  1  0
  3  6  1  0
  3 10  1  0
  4  8  1  0
  5  7  1  0
M  END
