C=COC(O)O_11
     RDKit          3D

 12 11  0  0  0  0  0  0  0  0999 V2000
    0.1378    1.2298    1.1490 C   0  0  0  0  0  0  0  0  0  0  0  0
    1.2739   -0.3486   -0.8710 C   0  0  0  0  0  0  0  0  0  0  0  0
    0.6470    0.7927   -1.1066 C   0  0  0  0  0  0  0  0  0  0  0  0
   -0.1313   -0.1093    1.4963 O   0  0  0  0  0  0  0  0  0  0  0  0
    1.3889    1.6731    1.6135 O   0  0  0  0  0  0  0  0  0  0  0  0
   -0.0901    1.5370   -0.2229 O   0  0  0  0  0  0  0  0  0  0  0  0
    2.0956    1.2511    1.0860 H   0  0  0  0  0  0  0  0  0  0  0  0
    0.0516   -0.2430    2.4495 H   0  0  0  0  0  0  0  0  0  0  0  0
   -0.6048    1.8443    1.6874 H   0  0  0  0  0  0  0  0  0  0  0  0
    0.6782    1.2272   -2.0993 H   0  0  0  0  0  0  0  0  0  0  0  0
    1.8189   -0.8619   -1.6353 H   0  0  0  0  0  0  0  0  0  0  0  0
    1.1912   -0.7969    0.0961 H   0  0  0  0  0  0  0  0  0  0  0  0
  1  4  1  0
  1  5  1  0
  1  6  1  0
  1  9  1  0
  2  3  2  0
  2 11  1  0
  2 12  1  0
  3  6  1  0
  3 10  1  0
  4  8  1  0
  5  7  1  0
M  END
