C=COC(O)O_4
     RDKit          3D

 12 11  0  0  0  0  0  0  0  0999 V2000
    0.4422    1.2992    1.2333 C   0  0  0  0  0  0  0  0  0  0  0  0
    1.4491   -0.2586   -1.8126 C   0  0  0  0  0  0  0  0  0  0  0  0
    0.8062    0.1642   -0.7329 C   0  0  0  0  0  0  0  0  0  0  0  0
   -0.4369    0.2512    1.5824 O   0  0  0  0  0  0  0  0  0  0  0  0
    1.0372    1.8947    2.3609 O   0  0  0  0  0  0  0  0  0  0  0  0
    1.3910    0.9318    0.2388 O   0  0  0  0  0  0  0  0  0  0  0  0
    1.6942    1.2670    2.7190 H   0  0  0  0  0  0  0  0  0  0  0  0
   -0.9654    0.5178    2.3625 H   0  0  0  0  0  0  0  0  0  0  0  0
   -0.1746    2.0896    0.7729 H   0  0  0  0  0  0  0  0  0  0  0  0
   -0.2313   -0.1023   -0.5755 H   0  0  0  0  0  0  0  0  0  0  0  0
    0.9676   -0.8640   -2.5535 H   0  0  0  0  0  0  0  0  0  0  0  0
    2.4775    0.0050   -1.9526 H   0  0  0  0  0  0  0  0  0  0  0  0
  1  4  1  0
  1  5  1  0
  1  6  1  0
  1  9  1  0
  2  3  2  0
  2 11  1  0
  2 12  1  0
  3  6  1  0
  3 10  1  0
  4  8  1  0
  5  7  1  0
M  END
