C=COC(O)O_3
     RDKit          3D

 12 11  0  0  0  0  0  0  0  0999 V2000
    0.3299    1.4753    1.3088 C   0  0  0  0  0  0  0  0  0  0  0  0
    1.3572   -0.1831   -1.6630 C   0  0  0  0  0  0  0  0  0  0  0  0
    0.9708    0.1401   -0.4357 C   0  0  0  0  0  0  0  0  0  0  0  0
   -0.6299    0.5356    1.7383 O   0  0  0  0  0  0  0  0  0  0  0  0
    1.5102    1.4579    2.0768 O   0  0  0  0  0  0  0  0  0  0  0  0
    0.5614    1.3961   -0.0875 O   0  0  0  0  0  0  0  0  0  0  0  0
    1.8751    0.5515    2.0807 H   0  0  0  0  0  0  0  0  0  0  0  0
   -1.4101    0.5665    1.1465 H   0  0  0  0  0  0  0  0  0  0  0  0
   -0.0993    2.4787    1.4761 H   0  0  0  0  0  0  0  0  0  0  0  0
    0.9594   -0.6100    0.3446 H   0  0  0  0  0  0  0  0  0  0  0  0
    1.6702   -1.1768   -1.9124 H   0  0  0  0  0  0  0  0  0  0  0  0
    1.3621    0.5638   -2.4305 H   0  0  0  0  0  0  0  0  0  0  0  0
  1  4  1  0
  1  5  1  0
  1  6  1  0
  1  9  1  0
  2  3  2  0
  2 11  1  0
  2 12  1  0
  3  6  1  0
  3 10  1  0
  4  8  1  0
  5  7  1  0
M  END
