C=COC(O)O_19
     RDKit          3D

 12 11  0  0  0  0  0  0  0  0999 V2000
    0.2535    1.2318    1.0367 C   0  0  0  0  0  0  0  0  0  0  0  0
    1.3068   -0.2973   -0.9634 C   0  0  0  0  0  0  0  0  0  0  0  0
    0.4084    0.6437   -1.2067 C   0  0  0  0  0  0  0  0  0  0  0  0
   -0.1078   -0.0449    1.5190 O   0  0  0  0  0  0  0  0  0  0  0  0
    1.6206    1.5286    1.2260 O   0  0  0  0  0  0  0  0  0  0  0  0
   -0.1871    1.4678   -0.2946 O   0  0  0  0  0  0  0  0  0  0  0  0
    1.8840    1.3973    2.1625 H   0  0  0  0  0  0  0  0  0  0  0  0
    0.1716   -0.1616    2.4528 H   0  0  0  0  0  0  0  0  0  0  0  0
   -0.3154    1.9674    1.6315 H   0  0  0  0  0  0  0  0  0  0  0  0
    0.0749    0.8203   -2.2227 H   0  0  0  0  0  0  0  0  0  0  0  0
    1.7225   -0.8996   -1.7441 H   0  0  0  0  0  0  0  0  0  0  0  0
    1.6246   -0.4580    0.0458 H   0  0  0  0  0  0  0  0  0  0  0  0
  1  4  1  0
  1  5  1  0
  1  6  1  0
  1  9  1  0
  2  3  2  0
  2 11  1  0
  2 12  1  0
  3  6  1  0
  3 10  1  0
  4  8  1  0
  5  7  1  0
M  END
