C=COC(O)O_17
     RDKit          3D

 12 11  0  0  0  0  0  0  0  0999 V2000
    0.3778    1.3999    1.1153 C   0  0  0  0  0  0  0  0  0  0  0  0
    1.3818   -0.2229   -1.8620 C   0  0  0  0  0  0  0  0  0  0  0  0
    1.0164    0.1169   -0.6328 C   0  0  0  0  0  0  0  0  0  0  0  0
   -0.8088    0.6770    1.3706 O   0  0  0  0  0  0  0  0  0  0  0  0
    1.4504    1.0132    1.9492 O   0  0  0  0  0  0  0  0  0  0  0  0
    0.7301    1.3943   -0.2571 O   0  0  0  0  0  0  0  0  0  0  0  0
    1.1823    1.0137    2.8932 H   0  0  0  0  0  0  0  0  0  0  0  0
   -1.0286    0.6847    2.3269 H   0  0  0  0  0  0  0  0  0  0  0  0
    0.1634    2.4600    1.3366 H   0  0  0  0  0  0  0  0  0  0  0  0
    0.9298   -0.6353    0.1425 H   0  0  0  0  0  0  0  0  0  0  0  0
    1.5998   -1.2386   -2.1234 H   0  0  0  0  0  0  0  0  0  0  0  0
    1.4624    0.5326   -2.6163 H   0  0  0  0  0  0  0  0  0  0  0  0
  1  4  1  0
  1  5  1  0
  1  6  1  0
  1  9  1  0
  2  3  2  0
  2 11  1  0
  2 12  1  0
  3  6  1  0
  3 10  1  0
  4  8  1  0
  5  7  1  0
M  END
