C=COC(O)O_15
     RDKit          3D

 12 11  0  0  0  0  0  0  0  0999 V2000
    0.4291    1.1744    1.3056 C   0  0  0  0  0  0  0  0  0  0  0  0
    1.4529   -0.2646   -1.7949 C   0  0  0  0  0  0  0  0  0  0  0  0
    0.7934    0.1518   -0.7227 C   0  0  0  0  0  0  0  0  0  0  0  0
   -0.6461    0.2672    1.4574 O   0  0  0  0  0  0  0  0  0  0  0  0
    1.0140    1.5310    2.5425 O   0  0  0  0  0  0  0  0  0  0  0  0
    1.3927    0.7849    0.3330 O   0  0  0  0  0  0  0  0  0  0  0  0
    1.8939    1.9276    2.3794 H   0  0  0  0  0  0  0  0  0  0  0  0
   -1.0495    0.4059    2.3381 H   0  0  0  0  0  0  0  0  0  0  0  0
   -0.0170    2.1016    0.9048 H   0  0  0  0  0  0  0  0  0  0  0  0
   -0.2735   -0.0128   -0.6393 H   0  0  0  0  0  0  0  0  0  0  0  0
    0.9569   -0.7648   -2.6017 H   0  0  0  0  0  0  0  0  0  0  0  0
    2.5100   -0.1065   -1.8595 H   0  0  0  0  0  0  0  0  0  0  0  0
  1  4  1  0
  1  5  1  0
  1  6  1  0
  1  9  1  0
  2  3  2  0
  2 11  1  0
  2 12  1  0
  3  6  1  0
  3 10  1  0
  4  8  1  0
  5  7  1  0
M  END
