C=COC(O)O_1
     RDKit          3D

 12 11  0  0  0  0  0  0  0  0999 V2000
    0.2778    1.4895    1.1705 C   0  0  0  0  0  0  0  0  0  0  0  0
    1.4981   -0.2023   -1.7111 C   0  0  0  0  0  0  0  0  0  0  0  0
    0.9373    0.1419   -0.5595 C   0  0  0  0  0  0  0  0  0  0  0  0
   -0.8252    0.6333    1.3729 O   0  0  0  0  0  0  0  0  0  0  0  0
    1.2692    1.3277    2.1555 O   0  0  0  0  0  0  0  0  0  0  0  0
    0.7939    1.4373   -0.1516 O   0  0  0  0  0  0  0  0  0  0  0  0
    1.6947    0.4558    2.0365 H   0  0  0  0  0  0  0  0  0  0  0  0
   -1.1045    0.6755    2.3108 H   0  0  0  0  0  0  0  0  0  0  0  0
   -0.0912    2.5232    1.2884 H   0  0  0  0  0  0  0  0  0  0  0  0
    0.5506   -0.6181    0.1076 H   0  0  0  0  0  0  0  0  0  0  0  0
    1.5890   -1.2271   -2.0095 H   0  0  0  0  0  0  0  0  0  0  0  0
    1.8670    0.5589   -2.3678 H   0  0  0  0  0  0  0  0  0  0  0  0
  1  4  1  0
  1  5  1  0
  1  6  1  0
  1  9  1  0
  2  3  2  0
  2 11  1  0
  2 12  1  0
  3  6  1  0
  3 10  1  0
  4  8  1  0
  5  7  1  0
M  END
