C=COC(O)O_10
     RDKit          3D

 12 11  0  0  0  0  0  0  0  0999 V2000
    0.3118    1.2152    1.0393 C   0  0  0  0  0  0  0  0  0  0  0  0
    1.4478    0.2803   -1.3152 C   0  0  0  0  0  0  0  0  0  0  0  0
    0.4103   -0.3113   -0.7450 C   0  0  0  0  0  0  0  0  0  0  0  0
   -0.4511    1.6212    2.1523 O   0  0  0  0  0  0  0  0  0  0  0  0
    1.6909    1.1425    1.3049 O   0  0  0  0  0  0  0  0  0  0  0  0
   -0.1916    0.0233    0.4435 O   0  0  0  0  0  0  0  0  0  0  0  0
    1.8447    0.4441    1.9712 H   0  0  0  0  0  0  0  0  0  0  0  0
   -0.4992    0.8814    2.7898 H   0  0  0  0  0  0  0  0  0  0  0  0
    0.1804    2.0182    0.2964 H   0  0  0  0  0  0  0  0  0  0  0  0
   -0.0560   -1.1614   -1.2283 H   0  0  0  0  0  0  0  0  0  0  0  0
    1.8462   -0.0571   -2.2489 H   0  0  0  0  0  0  0  0  0  0  0  0
    1.9226    1.0993   -0.8174 H   0  0  0  0  0  0  0  0  0  0  0  0
  1  4  1  0
  1  5  1  0
  1  6  1  0
  1  9  1  0
  2  3  2  0
  2 11  1  0
  2 12  1  0
  3  6  1  0
  3 10  1  0
  4  8  1  0
  5  7  1  0
M  END
