C=COC(O)O_5
     RDKit          3D

 12 11  0  0  0  0  0  0  0  0999 V2000
    0.1374    1.0559    1.3257 C   0  0  0  0  0  0  0  0  0  0  0  0
    1.4246   -0.3239   -1.6953 C   0  0  0  0  0  0  0  0  0  0  0  0
    1.0045    0.4621   -0.7135 C   0  0  0  0  0  0  0  0  0  0  0  0
   -0.2514    0.6120    2.6095 O   0  0  0  0  0  0  0  0  0  0  0  0
    1.0598    2.1171    1.3676 O   0  0  0  0  0  0  0  0  0  0  0  0
    0.5605   -0.0139    0.4922 O   0  0  0  0  0  0  0  0  0  0  0  0
    1.8216    1.8252    1.9041 H   0  0  0  0  0  0  0  0  0  0  0  0
   -0.7357   -0.2352    2.5279 H   0  0  0  0  0  0  0  0  0  0  0  0
   -0.7672    1.4695    0.8484 H   0  0  0  0  0  0  0  0  0  0  0  0
    1.0083    1.5379   -0.8371 H   0  0  0  0  0  0  0  0  0  0  0  0
    1.7711    0.0751   -2.6269 H   0  0  0  0  0  0  0  0  0  0  0  0
    1.4233   -1.3861   -1.5601 H   0  0  0  0  0  0  0  0  0  0  0  0
  1  4  1  0
  1  5  1  0
  1  6  1  0
  1  9  1  0
  2  3  2  0
  2 11  1  0
  2 12  1  0
  3  6  1  0
  3 10  1  0
  4  8  1  0
  5  7  1  0
M  END
