C=COC(O)O_8
     RDKit          3D

 12 11  0  0  0  0  0  0  0  0999 V2000
    0.3197    1.2709    1.3991 C   0  0  0  0  0  0  0  0  0  0  0  0
    1.3398   -0.1536   -1.6701 C   0  0  0  0  0  0  0  0  0  0  0  0
    0.9667    0.1057   -0.4238 C   0  0  0  0  0  0  0  0  0  0  0  0
   -0.8744    0.5394    1.5821 O   0  0  0  0  0  0  0  0  0  0  0  0
    1.3956    0.8314    2.2012 O   0  0  0  0  0  0  0  0  0  0  0  0
    0.6806    1.3580    0.0347 O   0  0  0  0  0  0  0  0  0  0  0  0
    2.2131    1.3097    1.9484 H   0  0  0  0  0  0  0  0  0  0  0  0
   -1.5420    0.8267    0.9243 H   0  0  0  0  0  0  0  0  0  0  0  0
    0.1000    2.3053    1.7168 H   0  0  0  0  0  0  0  0  0  0  0  0
    0.8728   -0.6965    0.2992 H   0  0  0  0  0  0  0  0  0  0  0  0
    1.5569   -1.1506   -1.9961 H   0  0  0  0  0  0  0  0  0  0  0  0
    1.4280    0.6491   -2.3731 H   0  0  0  0  0  0  0  0  0  0  0  0
  1  4  1  0
  1  5  1  0
  1  6  1  0
  1  9  1  0
  2  3  2  0
  2 11  1  0
  2 12  1  0
  3  6  1  0
  3 10  1  0
  4  8  1  0
  5  7  1  0
M  END
