C=COC(O)O_18
     RDKit          3D

 12 11  0  0  0  0  0  0  0  0999 V2000
    0.2073    0.9626    1.0947 C   0  0  0  0  0  0  0  0  0  0  0  0
    1.4284    0.3815   -1.3366 C   0  0  0  0  0  0  0  0  0  0  0  0
    0.5221   -0.4128   -0.7897 C   0  0  0  0  0  0  0  0  0  0  0  0
   -0.5508    1.1627    2.2696 O   0  0  0  0  0  0  0  0  0  0  0  0
    1.5832    1.1207    1.3263 O   0  0  0  0  0  0  0  0  0  0  0  0
   -0.1017   -0.2567    0.4238 O   0  0  0  0  0  0  0  0  0  0  0  0
    1.8661    0.4005    1.9218 H   0  0  0  0  0  0  0  0  0  0  0  0
   -0.2308    1.9614    2.7388 H   0  0  0  0  0  0  0  0  0  0  0  0
   -0.0888    1.7657    0.4008 H   0  0  0  0  0  0  0  0  0  0  0  0
    0.1987   -1.3025   -1.3165 H   0  0  0  0  0  0  0  0  0  0  0  0
    1.8581    0.1714   -2.2935 H   0  0  0  0  0  0  0  0  0  0  0  0
    1.7651    1.2411   -0.7969 H   0  0  0  0  0  0  0  0  0  0  0  0
  1  4  1  0
  1  5  1  0
  1  6  1  0
  1  9  1  0
  2  3  2  0
  2 11  1  0
  2 12  1  0
  3  6  1  0
  3 10  1  0
  4  8  1  0
  5  7  1  0
M  END
