C=COC(O)O_13
     RDKit          3D

 12 11  0  0  0  0  0  0  0  0999 V2000
    0.4122    1.1217    1.1381 C   0  0  0  0  0  0  0  0  0  0  0  0
    1.3894    0.3297   -1.3401 C   0  0  0  0  0  0  0  0  0  0  0  0
    0.4797   -0.3690   -0.6801 C   0  0  0  0  0  0  0  0  0  0  0  0
   -0.2353    1.3997    2.3631 O   0  0  0  0  0  0  0  0  0  0  0  0
    1.8121    1.2031    1.2347 O   0  0  0  0  0  0  0  0  0  0  0  0
   -0.0421   -0.0992    0.5614 O   0  0  0  0  0  0  0  0  0  0  0  0
    2.0928    0.5897    1.9400 H   0  0  0  0  0  0  0  0  0  0  0  0
   -1.1765    1.1367    2.3002 H   0  0  0  0  0  0  0  0  0  0  0  0
    0.1077    1.9188    0.4405 H   0  0  0  0  0  0  0  0  0  0  0  0
    0.0654   -1.2660   -1.1244 H   0  0  0  0  0  0  0  0  0  0  0  0
    1.7345    0.0340   -2.3085 H   0  0  0  0  0  0  0  0  0  0  0  0
    1.8171    1.1965   -0.8822 H   0  0  0  0  0  0  0  0  0  0  0  0
  1  4  1  0
  1  5  1  0
  1  6  1  0
  1  9  1  0
  2  3  2  0
  2 11  1  0
  2 12  1  0
  3  6  1  0
  3 10  1  0
  4  8  1  0
  5  7  1  0
M  END
