CC(=C)O.O=O_10
     RDKit          3D

 12 10  0  0  0  0  0  0  0  0999 V2000
   -0.1918   -0.0310    0.2349 C   0  0  0  0  0  0  0  0  0  0  0  0
    0.7780    0.5660    2.4078 C   0  0  0  0  0  0  0  0  0  0  0  0
    0.7713    0.7196    1.0821 C   0  0  0  0  0  0  0  0  0  0  0  0
   -1.6447    2.9691    1.5868 O   0  0  0  0  0  0  0  0  0  0  0  0
   -2.2844    2.1244    1.9829 O   0  0  0  0  0  0  0  0  0  0  0  0
    1.6550    1.5947    0.4795 O   0  0  0  0  0  0  0  0  0  0  0  0
   -0.6035   -0.8907    0.7667 H   0  0  0  0  0  0  0  0  0  0  0  0
    0.2935   -0.4015   -0.6694 H   0  0  0  0  0  0  0  0  0  0  0  0
   -1.0223    0.6105   -0.0645 H   0  0  0  0  0  0  0  0  0  0  0  0
    1.5054    1.6022   -0.4931 H   0  0  0  0  0  0  0  0  0  0  0  0
    0.0960   -0.0992    2.8981 H   0  0  0  0  0  0  0  0  0  0  0  0
    1.4725    1.1173    3.0087 H   0  0  0  0  0  0  0  0  0  0  0  0
  1  3  1  0
  1  7  1  0
  1  8  1  0
  1  9  1  0
  2  3  2  0
  2 11  1  0
  2 12  1  0
  3  6  1  0
  4  5  2  0
  6 10  1  0
M  END
