CC(=C)O.O=O_0
     RDKit          3D

 12 10  0  0  0  0  0  0  0  0999 V2000
    0.3579    0.4725    0.1110 C   0  0  0  0  0  0  0  0  0  0  0  0
    1.5286   -0.0941    2.1915 C   0  0  0  0  0  0  0  0  0  0  0  0
    0.5231    0.5415    1.5863 C   0  0  0  0  0  0  0  0  0  0  0  0
   -2.7620    2.8006    1.0827 O   0  0  0  0  0  0  0  0  0  0  0  0
   -2.2228    2.5058    0.1333 O   0  0  0  0  0  0  0  0  0  0  0  0
   -0.3737    1.2848    2.3276 O   0  0  0  0  0  0  0  0  0  0  0  0
    0.9478   -0.3390   -0.3189 H   0  0  0  0  0  0  0  0  0  0  0  0
    0.6762    1.4059   -0.3560 H   0  0  0  0  0  0  0  0  0  0  0  0
   -0.6864    0.2999   -0.1538 H   0  0  0  0  0  0  0  0  0  0  0  0
   -1.0445    1.7082    1.7248 H   0  0  0  0  0  0  0  0  0  0  0  0
    2.2409   -0.6714    1.6372 H   0  0  0  0  0  0  0  0  0  0  0  0
    1.6399   -0.0333    3.2551 H   0  0  0  0  0  0  0  0  0  0  0  0
  1  3  1  0
  1  7  1  0
  1  8  1  0
  1  9  1  0
  2  3  2  0
  2 11  1  0
  2 12  1  0
  3  6  1  0
  4  5  2  0
  6 10  1  0
M  END
