CC(=C)O.O=O_4
     RDKit          3D

 12 10  0  0  0  0  0  0  0  0999 V2000
    0.5719   -0.7479    0.2299 C   0  0  0  0  0  0  0  0  0  0  0  0
    0.4504    1.5475    1.0805 C   0  0  0  0  0  0  0  0  0  0  0  0
   -0.0694    0.3193    1.0415 C   0  0  0  0  0  0  0  0  0  0  0  0
   -0.9300    4.0588    2.8745 O   0  0  0  0  0  0  0  0  0  0  0  0
   -0.0253    4.5510    2.4066 O   0  0  0  0  0  0  0  0  0  0  0  0
   -1.2239    0.0323    1.7452 O   0  0  0  0  0  0  0  0  0  0  0  0
    0.4393   -1.7256    0.6956 H   0  0  0  0  0  0  0  0  0  0  0  0
    1.6444   -0.5742    0.1253 H   0  0  0  0  0  0  0  0  0  0  0  0
    0.1356   -0.7866   -0.7695 H   0  0  0  0  0  0  0  0  0  0  0  0
   -1.4850   -0.9039    1.5917 H   0  0  0  0  0  0  0  0  0  0  0  0
    1.3389    1.7980    0.5366 H   0  0  0  0  0  0  0  0  0  0  0  0
   -0.0219    2.3129    1.6629 H   0  0  0  0  0  0  0  0  0  0  0  0
  1  3  1  0
  1  7  1  0
  1  8  1  0
  1  9  1  0
  2  3  2  0
  2 11  1  0
  2 12  1  0
  3  6  1  0
  4  5  2  0
  6 10  1  0
M  END
