CC(=C)O.O=O_6
     RDKit          3D

 12 10  0  0  0  0  0  0  0  0999 V2000
   -0.0864   -0.0137    0.1927 C   0  0  0  0  0  0  0  0  0  0  0  0
    1.0149    0.5588    2.3066 C   0  0  0  0  0  0  0  0  0  0  0  0
    0.7373    0.8851    1.0425 C   0  0  0  0  0  0  0  0  0  0  0  0
   -1.9796    2.5661    1.8527 O   0  0  0  0  0  0  0  0  0  0  0  0
   -2.3992    1.5733    2.1962 O   0  0  0  0  0  0  0  0  0  0  0  0
    1.2286    2.0601    0.5053 O   0  0  0  0  0  0  0  0  0  0  0  0
   -0.7663   -0.6162    0.7978 H   0  0  0  0  0  0  0  0  0  0  0  0
    0.5486   -0.6913   -0.3804 H   0  0  0  0  0  0  0  0  0  0  0  0
   -0.6912    0.5605   -0.5107 H   0  0  0  0  0  0  0  0  0  0  0  0
    0.9526    2.1383   -0.4360 H   0  0  0  0  0  0  0  0  0  0  0  0
    0.6522   -0.3499    2.7434 H   0  0  0  0  0  0  0  0  0  0  0  0
    1.6137    1.2102    2.9104 H   0  0  0  0  0  0  0  0  0  0  0  0
  1  3  1  0
  1  7  1  0
  1  8  1  0
  1  9  1  0
  2  3  2  0
  2 11  1  0
  2 12  1  0
  3  6  1  0
  4  5  2  0
  6 10  1  0
M  END
