CC(=C)O.O=O_19
     RDKit          3D

 12 10  0  0  0  0  0  0  0  0999 V2000
   -0.0915    0.8205    0.6360 C   0  0  0  0  0  0  0  0  0  0  0  0
    1.6987   -0.0424    2.0703 C   0  0  0  0  0  0  0  0  0  0  0  0
    0.3923    0.0588    1.8167 C   0  0  0  0  0  0  0  0  0  0  0  0
   -1.7071    3.1620   -1.2235 O   0  0  0  0  0  0  0  0  0  0  0  0
   -1.3116    3.8678   -0.4329 O   0  0  0  0  0  0  0  0  0  0  0  0
   -0.5267   -0.5317    2.6637 O   0  0  0  0  0  0  0  0  0  0  0  0
    0.6452    0.8116   -0.1693 H   0  0  0  0  0  0  0  0  0  0  0  0
   -0.2890    1.8599    0.9032 H   0  0  0  0  0  0  0  0  0  0  0  0
   -1.0144    0.3903    0.2443 H   0  0  0  0  0  0  0  0  0  0  0  0
   -1.4401   -0.3425    2.3502 H   0  0  0  0  0  0  0  0  0  0  0  0
    2.4302    0.4145    1.4345 H   0  0  0  0  0  0  0  0  0  0  0  0
    2.0390   -0.5875    2.9275 H   0  0  0  0  0  0  0  0  0  0  0  0
  1  3  1  0
  1  7  1  0
  1  8  1  0
  1  9  1  0
  2  3  2  0
  2 11  1  0
  2 12  1  0
  3  6  1  0
  4  5  2  0
  6 10  1  0
M  END
