CC(=C)O.O=O
     RDKit          3D

 12 10  0  0  0  0  0  0  0  0999 V2000
    0.1483    0.1847    0.0423 C   0  0  0  0  0  0  0  0  0  0  0  0
    1.4542    0.6082    2.0798 C   0  0  0  0  0  0  0  0  0  0  0  0
    0.2716    0.3484    1.5279 C   0  0  0  0  0  0  0  0  0  0  0  0
   -1.8313    3.0756    0.6593 O   0  0  0  0  0  0  0  0  0  0  0  0
   -0.8437    3.5663    0.9887 O   0  0  0  0  0  0  0  0  0  0  0  0
   -0.8485    0.2193    2.3467 O   0  0  0  0  0  0  0  0  0  0  0  0
    0.6942   -0.7266   -0.2811 H   0  0  0  0  0  0  0  0  0  0  0  0
    0.5744    1.0706   -0.4751 H   0  0  0  0  0  0  0  0  0  0  0  0
   -0.9170    0.0854   -0.2528 H   0  0  0  0  0  0  0  0  0  0  0  0
   -1.7639    0.0176    1.9628 H   0  0  0  0  0  0  0  0  0  0  0  0
    2.3434    0.7092    1.4696 H   0  0  0  0  0  0  0  0  0  0  0  0
    1.5432    0.7227    3.1525 H   0  0  0  0  0  0  0  0  0  0  0  0
  1  3  1  0
  1  7  1  0
  1  8  1  0
  1  9  1  0
  2  3  2  0
  2 11  1  0
  2 12  1  0
  3  6  1  0
  4  5  2  0
  6 10  1  0
M  END
