CC(=C)O.O=O_17
     RDKit          3D

 12 10  0  0  0  0  0  0  0  0999 V2000
   -0.0929    1.1221    0.9352 C   0  0  0  0  0  0  0  0  0  0  0  0
    1.7316   -0.2350    1.8494 C   0  0  0  0  0  0  0  0  0  0  0  0
    0.4199   -0.0074    1.7533 C   0  0  0  0  0  0  0  0  0  0  0  0
   -1.7787    2.9569   -1.3420 O   0  0  0  0  0  0  0  0  0  0  0  0
   -1.4391    3.7667   -0.6290 O   0  0  0  0  0  0  0  0  0  0  0  0
   -0.4755   -0.8134    2.4311 O   0  0  0  0  0  0  0  0  0  0  0  0
   -0.1995    2.0217    1.5435 H   0  0  0  0  0  0  0  0  0  0  0  0
   -1.0686    0.8844    0.5085 H   0  0  0  0  0  0  0  0  0  0  0  0
    0.5824    1.3499    0.1085 H   0  0  0  0  0  0  0  0  0  0  0  0
   -1.3944   -0.4982    2.2740 H   0  0  0  0  0  0  0  0  0  0  0  0
    2.4461    0.3811    1.3415 H   0  0  0  0  0  0  0  0  0  0  0  0
    2.0936   -1.0475    2.4465 H   0  0  0  0  0  0  0  0  0  0  0  0
  1  3  1  0
  1  7  1  0
  1  8  1  0
  1  9  1  0
  2  3  2  0
  2 11  1  0
  2 12  1  0
  3  6  1  0
  4  5  2  0
  6 10  1  0
M  END
