CC(=C)O.O=O_14
     RDKit          3D

 12 10  0  0  0  0  0  0  0  0999 V2000
    0.0206    0.0558    0.1168 C   0  0  0  0  0  0  0  0  0  0  0  0
    1.1172    0.4663    2.2693 C   0  0  0  0  0  0  0  0  0  0  0  0
    0.7083    0.9424    1.0913 C   0  0  0  0  0  0  0  0  0  0  0  0
   -2.5082    1.9149    1.4870 O   0  0  0  0  0  0  0  0  0  0  0  0
   -2.1391    1.7647    2.5457 O   0  0  0  0  0  0  0  0  0  0  0  0
    0.9363    2.2653    0.7612 O   0  0  0  0  0  0  0  0  0  0  0  0
   -0.5544   -0.7192    0.6268 H   0  0  0  0  0  0  0  0  0  0  0  0
    0.7444   -0.4333   -0.5372 H   0  0  0  0  0  0  0  0  0  0  0  0
   -0.6714    0.6229   -0.5076 H   0  0  0  0  0  0  0  0  0  0  0  0
    0.5946    2.4484   -0.1431 H   0  0  0  0  0  0  0  0  0  0  0  0
    0.9598   -0.5569    2.5455 H   0  0  0  0  0  0  0  0  0  0  0  0
    1.6168    1.1100    2.9648 H   0  0  0  0  0  0  0  0  0  0  0  0
  1  3  1  0
  1  7  1  0
  1  8  1  0
  1  9  1  0
  2  3  2  0
  2 11  1  0
  2 12  1  0
  3  6  1  0
  4  5  2  0
  6 10  1  0
M  END
