CC(=C)O.O=O_2
     RDKit          3D

 12 10  0  0  0  0  0  0  0  0999 V2000
   -0.2569   -0.0148    0.1397 C   0  0  0  0  0  0  0  0  0  0  0  0
    0.4444    1.2227    2.1353 C   0  0  0  0  0  0  0  0  0  0  0  0
    0.2817    0.0480    1.5236 C   0  0  0  0  0  0  0  0  0  0  0  0
   -0.0033    4.0087    0.2720 O   0  0  0  0  0  0  0  0  0  0  0  0
   -0.4673    4.3300    1.2525 O   0  0  0  0  0  0  0  0  0  0  0  0
    0.5976   -1.1259    2.1814 O   0  0  0  0  0  0  0  0  0  0  0  0
   -1.3424   -0.1252    0.1534 H   0  0  0  0  0  0  0  0  0  0  0  0
    0.1631   -0.8616   -0.4054 H   0  0  0  0  0  0  0  0  0  0  0  0
   -0.0154    0.8911   -0.4194 H   0  0  0  0  0  0  0  0  0  0  0  0
    0.3983   -1.8971    1.6035 H   0  0  0  0  0  0  0  0  0  0  0  0
    0.1981    2.1452    1.6488 H   0  0  0  0  0  0  0  0  0  0  0  0
    0.8269    1.2603    3.1352 H   0  0  0  0  0  0  0  0  0  0  0  0
  1  3  1  0
  1  7  1  0
  1  8  1  0
  1  9  1  0
  2  3  2  0
  2 11  1  0
  2 12  1  0
  3  6  1  0
  4  5  2  0
  6 10  1  0
M  END
