CC(=C)O.O=O_9
     RDKit          3D

 12 10  0  0  0  0  0  0  0  0999 V2000
    0.0954    0.1266    0.0584 C   0  0  0  0  0  0  0  0  0  0  0  0
    1.3843    0.6296    2.0801 C   0  0  0  0  0  0  0  0  0  0  0  0
    0.2042    0.3476    1.5240 C   0  0  0  0  0  0  0  0  0  0  0  0
   -0.6527    3.5324    1.2643 O   0  0  0  0  0  0  0  0  0  0  0  0
   -1.4899    3.1774    0.5913 O   0  0  0  0  0  0  0  0  0  0  0  0
   -0.9322    0.2771    2.3082 O   0  0  0  0  0  0  0  0  0  0  0  0
    0.9961   -0.3473   -0.3360 H   0  0  0  0  0  0  0  0  0  0  0  0
   -0.0465    1.0737   -0.4648 H   0  0  0  0  0  0  0  0  0  0  0  0
   -0.7498   -0.5209   -0.1791 H   0  0  0  0  0  0  0  0  0  0  0  0
   -1.7170    0.0903    1.7448 H   0  0  0  0  0  0  0  0  0  0  0  0
    2.2781    0.6998    1.4933 H   0  0  0  0  0  0  0  0  0  0  0  0
    1.4549    0.7950    3.1362 H   0  0  0  0  0  0  0  0  0  0  0  0
  1  3  1  0
  1  7  1  0
  1  8  1  0
  1  9  1  0
  2  3  2  0
  2 11  1  0
  2 12  1  0
  3  6  1  0
  4  5  2  0
  6 10  1  0
M  END
