CC(=C)O.O=O_3
     RDKit          3D

 12 10  0  0  0  0  0  0  0  0999 V2000
   -0.3057   -0.0052    0.1384 C   0  0  0  0  0  0  0  0  0  0  0  0
    0.3855    1.2109    2.1496 C   0  0  0  0  0  0  0  0  0  0  0  0
    0.0638    0.0495    1.5769 C   0  0  0  0  0  0  0  0  0  0  0  0
    0.0724    4.3468    0.9900 O   0  0  0  0  0  0  0  0  0  0  0  0
    0.8350    3.9683    0.2451 O   0  0  0  0  0  0  0  0  0  0  0  0
    0.0891   -1.1181    2.3160 O   0  0  0  0  0  0  0  0  0  0  0  0
    0.5796   -0.1558   -0.4816 H   0  0  0  0  0  0  0  0  0  0  0  0
   -0.7889    0.9204   -0.1797 H   0  0  0  0  0  0  0  0  0  0  0  0
   -0.9994   -0.8242   -0.0570 H   0  0  0  0  0  0  0  0  0  0  0  0
   -0.1484   -1.8821    1.7431 H   0  0  0  0  0  0  0  0  0  0  0  0
    0.3826    2.1278    1.5949 H   0  0  0  0  0  0  0  0  0  0  0  0
    0.6592    1.2429    3.1849 H   0  0  0  0  0  0  0  0  0  0  0  0
  1  3  1  0
  1  7  1  0
  1  8  1  0
  1  9  1  0
  2  3  2  0
  2 11  1  0
  2 12  1  0
  3  6  1  0
  4  5  2  0
  6 10  1  0
M  END
