CC(=C)O.O=O_11
     RDKit          3D

 12 10  0  0  0  0  0  0  0  0999 V2000
   -0.3045   -0.1053    0.3500 C   0  0  0  0  0  0  0  0  0  0  0  0
    0.7947    0.4383    2.4716 C   0  0  0  0  0  0  0  0  0  0  0  0
    0.6945    0.6431    1.1566 C   0  0  0  0  0  0  0  0  0  0  0  0
   -1.5103    3.0013    1.9121 O   0  0  0  0  0  0  0  0  0  0  0  0
   -1.7102    2.9848    0.7989 O   0  0  0  0  0  0  0  0  0  0  0  0
    1.5335    1.5451    0.5293 O   0  0  0  0  0  0  0  0  0  0  0  0
   -0.6352    0.4831   -0.5072 H   0  0  0  0  0  0  0  0  0  0  0  0
   -1.1876   -0.3489    0.9436 H   0  0  0  0  0  0  0  0  0  0  0  0
    0.1217   -1.0379   -0.0232 H   0  0  0  0  0  0  0  0  0  0  0  0
    1.3453    1.5615   -0.4364 H   0  0  0  0  0  0  0  0  0  0  0  0
    0.1619   -0.2611    2.9798 H   0  0  0  0  0  0  0  0  0  0  0  0
    1.5211    0.9773    3.0455 H   0  0  0  0  0  0  0  0  0  0  0  0
  1  3  1  0
  1  7  1  0
  1  8  1  0
  1  9  1  0
  2  3  2  0
  2 11  1  0
  2 12  1  0
  3  6  1  0
  4  5  2  0
  6 10  1  0
M  END
