CC(=C)O.O=O_1
     RDKit          3D

 12 10  0  0  0  0  0  0  0  0999 V2000
   -0.4291    0.0343    0.1887 C   0  0  0  0  0  0  0  0  0  0  0  0
    0.5245    1.1880    2.1290 C   0  0  0  0  0  0  0  0  0  0  0  0
    0.0810    0.0533    1.5846 C   0  0  0  0  0  0  0  0  0  0  0  0
    0.3472    3.8635    0.0461 O   0  0  0  0  0  0  0  0  0  0  0  0
    0.8021    4.3155    0.9780 O   0  0  0  0  0  0  0  0  0  0  0  0
    0.0764   -1.1147    2.3236 O   0  0  0  0  0  0  0  0  0  0  0  0
    0.0510    0.8047   -0.4174 H   0  0  0  0  0  0  0  0  0  0  0  0
   -1.5059    0.2102    0.1695 H   0  0  0  0  0  0  0  0  0  0  0  0
   -0.2343   -0.9287   -0.2857 H   0  0  0  0  0  0  0  0  0  0  0  0
   -0.3012   -1.8483    1.7873 H   0  0  0  0  0  0  0  0  0  0  0  0
    0.5286    2.1076    1.5790 H   0  0  0  0  0  0  0  0  0  0  0  0
    0.8847    1.1960    3.1379 H   0  0  0  0  0  0  0  0  0  0  0  0
  1  3  1  0
  1  7  1  0
  1  8  1  0
  1  9  1  0
  2  3  2  0
  2 11  1  0
  2 12  1  0
  3  6  1  0
  4  5  2  0
  6 10  1  0
M  END
