CC(=C)O.O=O_15
     RDKit          3D

 12 10  0  0  0  0  0  0  0  0999 V2000
   -0.8274    0.3604    0.5806 C   0  0  0  0  0  0  0  0  0  0  0  0
    0.6288    1.0230    2.4402 C   0  0  0  0  0  0  0  0  0  0  0  0
    0.2889    0.1090    1.5289 C   0  0  0  0  0  0  0  0  0  0  0  0
    0.7362    3.6932    0.4102 O   0  0  0  0  0  0  0  0  0  0  0  0
    0.2036    3.3431   -0.5243 O   0  0  0  0  0  0  0  0  0  0  0  0
    0.9849   -1.0821    1.4466 O   0  0  0  0  0  0  0  0  0  0  0  0
   -0.4432    0.6672   -0.3936 H   0  0  0  0  0  0  0  0  0  0  0  0
   -1.4898    1.1473    0.9458 H   0  0  0  0  0  0  0  0  0  0  0  0
   -1.4278   -0.5397    0.4401 H   0  0  0  0  0  0  0  0  0  0  0  0
    0.6218   -1.6305    0.7146 H   0  0  0  0  0  0  0  0  0  0  0  0
    0.1100    1.9572    2.5170 H   0  0  0  0  0  0  0  0  0  0  0  0
    1.4392    0.8335    3.1145 H   0  0  0  0  0  0  0  0  0  0  0  0
  1  3  1  0
  1  7  1  0
  1  8  1  0
  1  9  1  0
  2  3  2  0
  2 11  1  0
  2 12  1  0
  3  6  1  0
  4  5  2  0
  6 10  1  0
M  END
