CCC(=O)OO_1
     RDKit          3D

 12 11  0  0  0  0  0  0  0  0999 V2000
   -0.2030    0.4105   -1.0067 C   0  0  0  0  0  0  0  0  0  0  0  0
   -0.5062    0.2865    0.4702 C   0  0  0  0  0  0  0  0  0  0  0  0
    0.6283    0.8255    1.2816 C   0  0  0  0  0  0  0  0  0  0  0  0
    1.7804    0.1079    1.2437 O   0  0  0  0  0  0  0  0  0  0  0  0
    1.6040   -1.1554    0.5159 O   0  0  0  0  0  0  0  0  0  0  0  0
    0.4758    1.8621    1.8892 O   0  0  0  0  0  0  0  0  0  0  0  0
    2.0476   -1.8003    1.0879 H   0  0  0  0  0  0  0  0  0  0  0  0
   -1.0037    0.0052   -1.6297 H   0  0  0  0  0  0  0  0  0  0  0  0
   -0.0510    1.4555   -1.2859 H   0  0  0  0  0  0  0  0  0  0  0  0
    0.7196   -0.1252   -1.2461 H   0  0  0  0  0  0  0  0  0  0  0  0
   -0.6666   -0.7619    0.7479 H   0  0  0  0  0  0  0  0  0  0  0  0
   -1.4207    0.8296    0.7372 H   0  0  0  0  0  0  0  0  0  0  0  0
  1  2  1  0
  1  8  1  0
  1  9  1  0
  1 10  1  0
  2  3  1  0
  2 11  1  0
  2 12  1  0
  3  4  1  0
  3  6  2  0
  4  5  1  0
  5  7  1  0
M  END
