CCC(=O)OO
     RDKit          3D

 12 11  0  0  0  0  0  0  0  0999 V2000
   -0.2780    0.5643   -1.0653 C   0  0  0  0  0  0  0  0  0  0  0  0
   -0.5452    0.4085    0.4273 C   0  0  0  0  0  0  0  0  0  0  0  0
    0.6998    0.6817    1.2201 C   0  0  0  0  0  0  0  0  0  0  0  0
    1.6714   -0.3018    1.4071 O   0  0  0  0  0  0  0  0  0  0  0  0
    1.5248   -1.5325    0.8981 O   0  0  0  0  0  0  0  0  0  0  0  0
    0.8918    1.8313    1.6967 O   0  0  0  0  0  0  0  0  0  0  0  0
    2.3443   -2.0147    1.1743 H   0  0  0  0  0  0  0  0  0  0  0  0
    0.5005   -0.1555   -1.3970 H   0  0  0  0  0  0  0  0  0  0  0  0
   -1.2113    0.3637   -1.6326 H   0  0  0  0  0  0  0  0  0  0  0  0
    0.0594    1.5988   -1.2904 H   0  0  0  0  0  0  0  0  0  0  0  0
   -0.9069   -0.6208    0.6358 H   0  0  0  0  0  0  0  0  0  0  0  0
   -1.3462    1.1170    0.7312 H   0  0  0  0  0  0  0  0  0  0  0  0
  1  2  1  0
  1  8  1  0
  1  9  1  0
  1 10  1  0
  2  3  1  0
  2 11  1  0
  2 12  1  0
  3  4  1  0
  3  6  2  0
  4  5  1  0
  5  7  1  0
M  END
