CCOO.[C-]#[O+]_0
     RDKit          3D

 12 10  0  0  0  0  0  0  0  0999 V2000
    1.7992    1.4510   -2.3355 C   0  0  0  0  0  0  0  0  0  0  0  0
    1.6012    0.7216   -1.0152 C   0  0  0  0  0  0  0  0  0  0  0  0
    0.3130   -0.0214   -0.9574 C   0  0  0  0  0  0  0  0  0  0  0  0
    0.7009    2.2468   -2.6753 O   0  0  0  0  0  0  0  0  0  0  0  0
    0.1617    2.9301   -1.5166 O   0  0  0  0  0  0  0  0  0  0  0  0
   -0.7154    0.4617   -0.5873 O   0  0  0  0  0  0  0  0  0  0  0  0
   -0.3810    2.2193   -1.1264 H   0  0  0  0  0  0  0  0  0  0  0  0
    1.9398    0.7459   -3.1643 H   0  0  0  0  0  0  0  0  0  0  0  0
    2.6728    2.1158   -2.3075 H   0  0  0  0  0  0  0  0  0  0  0  0
    0.2559   -1.0343   -1.3377 H   0  0  0  0  0  0  0  0  0  0  0  0
    2.4424    0.0476   -0.8120 H   0  0  0  0  0  0  0  0  0  0  0  0
    1.5985    1.4555   -0.2005 H   0  0  0  0  0  0  0  0  0  0  0  0
  1  2  1  0
  1  4  1  0
  1  8  1  0
  1  9  1  0
  2 10  1  0
  2 11  1  0
  2 12  1  0
  3  6  3  0
  4  5  1  0
  5  7  1  0
M  END
