CCOO.[C-]#[O+]_12
     RDKit          3D

 12 10  0  0  0  0  0  0  0  0999 V2000
    0.8697    1.4415   -2.1651 C   0  0  0  0  0  0  0  0  0  0  0  0
    0.4249    0.1685   -1.4608 C   0  0  0  0  0  0  0  0  0  0  0  0
    1.4650   -0.3508   -0.5397 C   0  0  0  0  0  0  0  0  0  0  0  0
    1.1627    2.4647   -1.2548 O   0  0  0  0  0  0  0  0  0  0  0  0
    1.8496    3.5596   -1.9390 O   0  0  0  0  0  0  0  0  0  0  0  0
    1.5196   -1.4791   -0.1512 O   0  0  0  0  0  0  0  0  0  0  0  0
    1.3145    4.3420   -1.7267 H   0  0  0  0  0  0  0  0  0  0  0  0
    0.1086    1.8300   -2.8529 H   0  0  0  0  0  0  0  0  0  0  0  0
    1.7895    1.2778   -2.7411 H   0  0  0  0  0  0  0  0  0  0  0  0
    2.1975    0.3376   -0.1322 H   0  0  0  0  0  0  0  0  0  0  0  0
   -0.4879    0.3626   -0.8863 H   0  0  0  0  0  0  0  0  0  0  0  0
    0.1751   -0.6149   -2.1860 H   0  0  0  0  0  0  0  0  0  0  0  0
  1  2  1  0
  1  4  1  0
  1  8  1  0
  1  9  1  0
  2 10  1  0
  2 11  1  0
  2 12  1  0
  3  6  3  0
  4  5  1  0
  5  7  1  0
M  END
