CCOO.[C-]#[O+]_13
     RDKit          3D

 12 10  0  0  0  0  0  0  0  0999 V2000
    1.2598    1.5559   -1.7419 C   0  0  0  0  0  0  0  0  0  0  0  0
    0.5859    0.4658   -0.9246 C   0  0  0  0  0  0  0  0  0  0  0  0
    1.2698   -0.8489   -1.0072 C   0  0  0  0  0  0  0  0  0  0  0  0
    0.5856    2.7792   -1.6411 O   0  0  0  0  0  0  0  0  0  0  0  0
    1.3131    3.8104   -2.3785 O   0  0  0  0  0  0  0  0  0  0  0  0
    0.8130   -1.8656   -0.5784 O   0  0  0  0  0  0  0  0  0  0  0  0
    0.6449    4.1925   -2.9710 H   0  0  0  0  0  0  0  0  0  0  0  0
    1.3015    1.2984   -2.8069 H   0  0  0  0  0  0  0  0  0  0  0  0
    2.2873    1.7408   -1.4043 H   0  0  0  0  0  0  0  0  0  0  0  0
    2.2563   -0.9140   -1.4496 H   0  0  0  0  0  0  0  0  0  0  0  0
    0.5235    0.7770    0.1243 H   0  0  0  0  0  0  0  0  0  0  0  0
   -0.4517    0.3481   -1.2566 H   0  0  0  0  0  0  0  0  0  0  0  0
  1  2  1  0
  1  4  1  0
  1  8  1  0
  1  9  1  0
  2 10  1  0
  2 11  1  0
  2 12  1  0
  3  6  3  0
  4  5  1  0
  5  7  1  0
M  END
