CCOO.[C-]#[O+]_1
     RDKit          3D

 12 10  0  0  0  0  0  0  0  0999 V2000
    1.9118    1.5941   -2.0485 C   0  0  0  0  0  0  0  0  0  0  0  0
    1.6167    0.5562   -0.9700 C   0  0  0  0  0  0  0  0  0  0  0  0
    0.2335    0.0109   -1.0200 C   0  0  0  0  0  0  0  0  0  0  0  0
    1.2655    2.8120   -1.8028 O   0  0  0  0  0  0  0  0  0  0  0  0
   -0.1119    2.7763   -2.2628 O   0  0  0  0  0  0  0  0  0  0  0  0
   -0.7454    0.6118   -0.6936 O   0  0  0  0  0  0  0  0  0  0  0  0
   -0.5132    2.1231   -1.6594 H   0  0  0  0  0  0  0  0  0  0  0  0
    1.5856    1.2548   -3.0392 H   0  0  0  0  0  0  0  0  0  0  0  0
    2.9843    1.8233   -2.1078 H   0  0  0  0  0  0  0  0  0  0  0  0
    0.0609   -0.9829   -1.4173 H   0  0  0  0  0  0  0  0  0  0  0  0
    2.3409   -0.2663   -1.0241 H   0  0  0  0  0  0  0  0  0  0  0  0
    1.7602    1.0262    0.0097 H   0  0  0  0  0  0  0  0  0  0  0  0
  1  2  1  0
  1  4  1  0
  1  8  1  0
  1  9  1  0
  2 10  1  0
  2 11  1  0
  2 12  1  0
  3  6  3  0
  4  5  1  0
  5  7  1  0
M  END
