CCOO.[C-]#[O+]_14
     RDKit          3D

 12 10  0  0  0  0  0  0  0  0999 V2000
    1.0163    1.4331   -2.1452 C   0  0  0  0  0  0  0  0  0  0  0  0
    0.4342    0.1635   -1.5451 C   0  0  0  0  0  0  0  0  0  0  0  0
    1.3367   -0.4027   -0.5115 C   0  0  0  0  0  0  0  0  0  0  0  0
    1.0581    2.4787   -1.2155 O   0  0  0  0  0  0  0  0  0  0  0  0
    1.7171    3.6433   -1.8062 O   0  0  0  0  0  0  0  0  0  0  0  0
    2.2129   -1.1773   -0.7532 O   0  0  0  0  0  0  0  0  0  0  0  0
    1.0940    4.3723   -1.6510 H   0  0  0  0  0  0  0  0  0  0  0  0
    0.4394    1.7955   -3.0052 H   0  0  0  0  0  0  0  0  0  0  0  0
    2.0532    1.2769   -2.4717 H   0  0  0  0  0  0  0  0  0  0  0  0
    1.2971   -0.0256    0.5046 H   0  0  0  0  0  0  0  0  0  0  0  0
   -0.5508    0.3780   -1.1149 H   0  0  0  0  0  0  0  0  0  0  0  0
    0.2808   -0.5961   -2.3210 H   0  0  0  0  0  0  0  0  0  0  0  0
  1  2  1  0
  1  4  1  0
  1  8  1  0
  1  9  1  0
  2 10  1  0
  2 11  1  0
  2 12  1  0
  3  6  3  0
  4  5  1  0
  5  7  1  0
M  END
