CCOO.[C-]#[O+]_10
     RDKit          3D

 12 10  0  0  0  0  0  0  0  0999 V2000
    1.1721    1.5090   -1.8358 C   0  0  0  0  0  0  0  0  0  0  0  0
    0.4660    0.4159   -1.0558 C   0  0  0  0  0  0  0  0  0  0  0  0
    1.3118   -0.8003   -0.9490 C   0  0  0  0  0  0  0  0  0  0  0  0
    0.4302    2.6957   -1.8827 O   0  0  0  0  0  0  0  0  0  0  0  0
    1.1468    3.6960   -2.6693 O   0  0  0  0  0  0  0  0  0  0  0  0
    2.4830   -0.7663   -0.7192 O   0  0  0  0  0  0  0  0  0  0  0  0
    1.2680    4.4375   -2.0536 H   0  0  0  0  0  0  0  0  0  0  0  0
    1.3599    1.2106   -2.8749 H   0  0  0  0  0  0  0  0  0  0  0  0
    2.1439    1.7486   -1.3856 H   0  0  0  0  0  0  0  0  0  0  0  0
    0.8687   -1.7861   -1.0326 H   0  0  0  0  0  0  0  0  0  0  0  0
    0.2367    0.7880   -0.0509 H   0  0  0  0  0  0  0  0  0  0  0  0
   -0.4982    0.1909   -1.5264 H   0  0  0  0  0  0  0  0  0  0  0  0
  1  2  1  0
  1  4  1  0
  1  8  1  0
  1  9  1  0
  2 10  1  0
  2 11  1  0
  2 12  1  0
  3  6  3  0
  4  5  1  0
  5  7  1  0
M  END
