CCOO.[C-]#[O+]_3
     RDKit          3D

 12 10  0  0  0  0  0  0  0  0999 V2000
    1.7204    1.5584   -1.7775 C   0  0  0  0  0  0  0  0  0  0  0  0
    0.7554    0.7155   -0.9730 C   0  0  0  0  0  0  0  0  0  0  0  0
    1.0792   -0.7315   -1.0677 C   0  0  0  0  0  0  0  0  0  0  0  0
    1.3736    2.9071   -1.6944 O   0  0  0  0  0  0  0  0  0  0  0  0
   -0.0198    3.0831   -2.0873 O   0  0  0  0  0  0  0  0  0  0  0  0
    2.1933   -1.1610   -1.0668 O   0  0  0  0  0  0  0  0  0  0  0  0
    0.0210    3.7544   -2.7880 H   0  0  0  0  0  0  0  0  0  0  0  0
    1.7046    1.2784   -2.8380 H   0  0  0  0  0  0  0  0  0  0  0  0
    2.7508    1.4465   -1.4143 H   0  0  0  0  0  0  0  0  0  0  0  0
    0.2843   -1.4679   -1.0878 H   0  0  0  0  0  0  0  0  0  0  0  0
    0.7923    1.0359    0.0746 H   0  0  0  0  0  0  0  0  0  0  0  0
   -0.2661    0.9207   -1.3157 H   0  0  0  0  0  0  0  0  0  0  0  0
  1  2  1  0
  1  4  1  0
  1  8  1  0
  1  9  1  0
  2 10  1  0
  2 11  1  0
  2 12  1  0
  3  6  3  0
  4  5  1  0
  5  7  1  0
M  END
