CCOO.[C-]#[O+]_6
     RDKit          3D

 12 10  0  0  0  0  0  0  0  0999 V2000
    1.2316    1.3022   -2.4786 C   0  0  0  0  0  0  0  0  0  0  0  0
    0.4503    0.4467   -1.5027 C   0  0  0  0  0  0  0  0  0  0  0  0
    1.3541   -0.1676   -0.4992 C   0  0  0  0  0  0  0  0  0  0  0  0
    1.8241    2.3705   -1.8052 O   0  0  0  0  0  0  0  0  0  0  0  0
    0.8336    3.0506   -0.9783 O   0  0  0  0  0  0  0  0  0  0  0  0
    1.8560   -1.2435   -0.6278 O   0  0  0  0  0  0  0  0  0  0  0  0
    0.9067    3.9803   -1.2490 H   0  0  0  0  0  0  0  0  0  0  0  0
    0.5924    1.7268   -3.2629 H   0  0  0  0  0  0  0  0  0  0  0  0
    2.0381    0.7302   -2.9559 H   0  0  0  0  0  0  0  0  0  0  0  0
    1.6928    0.4229    0.3459 H   0  0  0  0  0  0  0  0  0  0  0  0
   -0.2973    1.0710   -0.9983 H   0  0  0  0  0  0  0  0  0  0  0  0
   -0.0934   -0.3504   -2.0238 H   0  0  0  0  0  0  0  0  0  0  0  0
  1  2  1  0
  1  4  1  0
  1  8  1  0
  1  9  1  0
  2 10  1  0
  2 11  1  0
  2 12  1  0
  3  6  3  0
  4  5  1  0
  5  7  1  0
M  END
