O[C@@H](C=C)OO_9
     RDKit          3D

 12 11  0  0  0  0  0  0  0  0999 V2000
    0.6567   -0.2028   -1.3005 C   0  0  0  0  0  0  0  0  0  0  0  0
    0.2545    0.8133   -0.5692 C   0  0  0  0  0  0  0  0  0  0  0  0
    0.3088    0.7736    0.9274 C   0  0  1  0  0  0  0  0  0  0  0  0
   -0.8754    0.2757    1.4866 O   0  0  0  0  0  0  0  0  0  0  0  0
   -0.6084   -0.1453    2.8507 O   0  0  0  0  0  0  0  0  0  0  0  0
    1.3939    0.0253    1.4078 O   0  0  0  0  0  0  0  0  0  0  0  0
   -1.1457   -0.9495    2.9527 H   0  0  0  0  0  0  0  0  0  0  0  0
    1.0739   -1.0805   -0.8427 H   0  0  0  0  0  0  0  0  0  0  0  0
    0.5883   -0.1905   -2.3719 H   0  0  0  0  0  0  0  0  0  0  0  0
    0.4241    1.7945    1.3302 H   0  0  0  0  0  0  0  0  0  0  0  0
    1.1883   -0.2089    2.3379 H   0  0  0  0  0  0  0  0  0  0  0  0
   -0.1964    1.6730   -1.0390 H   0  0  0  0  0  0  0  0  0  0  0  0
  1  2  2  0
  1  8  1  0
  1  9  1  0
  2  3  1  0
  2 12  1  0
  3  4  1  0
  3  6  1  0
  3 10  1  1
  4  5  1  0
  5  7  1  0
  6 11  1  0
M  END
