O[C@@H](C=C)OO_16
     RDKit          3D

 12 11  0  0  0  0  0  0  0  0999 V2000
    0.2112   -0.0670   -1.3907 C   0  0  0  0  0  0  0  0  0  0  0  0
    0.7378    0.6070   -0.3909 C   0  0  0  0  0  0  0  0  0  0  0  0
    0.1411    0.5941    0.9814 C   0  0  1  0  0  0  0  0  0  0  0  0
   -0.4811   -0.6242    1.2783 O   0  0  0  0  0  0  0  0  0  0  0  0
   -1.0328   -0.4947    2.6056 O   0  0  0  0  0  0  0  0  0  0  0  0
    1.0637    0.9015    1.9950 O   0  0  0  0  0  0  0  0  0  0  0  0
   -0.2498   -0.3800    3.1784 H   0  0  0  0  0  0  0  0  0  0  0  0
   -0.6610   -0.6766   -1.2448 H   0  0  0  0  0  0  0  0  0  0  0  0
    0.6398   -0.0435   -2.3744 H   0  0  0  0  0  0  0  0  0  0  0  0
   -0.6540    1.3545    1.0490 H   0  0  0  0  0  0  0  0  0  0  0  0
    1.7352    0.1886    2.0277 H   0  0  0  0  0  0  0  0  0  0  0  0
    1.6120    1.2181   -0.5447 H   0  0  0  0  0  0  0  0  0  0  0  0
  1  2  2  0
  1  8  1  0
  1  9  1  0
  2  3  1  0
  2 12  1  0
  3  4  1  0
  3  6  1  0
  3 10  1  6
  4  5  1  0
  5  7  1  0
  6 11  1  0
M  END
