O[C@@H](C=C)OO_14
     RDKit          3D

 12 11  0  0  0  0  0  0  0  0999 V2000
    0.7027    0.2567   -1.3215 C   0  0  0  0  0  0  0  0  0  0  0  0
   -0.0839   -0.0522   -0.3139 C   0  0  0  0  0  0  0  0  0  0  0  0
   -0.0888    0.7191    0.9654 C   0  0  1  0  0  0  0  0  0  0  0  0
   -0.8511    0.0553    1.9352 O   0  0  0  0  0  0  0  0  0  0  0  0
   -0.1994   -1.1955    2.2082 O   0  0  0  0  0  0  0  0  0  0  0  0
    1.2145    0.9433    1.4450 O   0  0  0  0  0  0  0  0  0  0  0  0
    0.4129   -0.9907    2.9364 H   0  0  0  0  0  0  0  0  0  0  0  0
    1.3800    1.0872   -1.2585 H   0  0  0  0  0  0  0  0  0  0  0  0
    0.7109   -0.3219   -2.2254 H   0  0  0  0  0  0  0  0  0  0  0  0
   -0.5654    1.6988    0.8007 H   0  0  0  0  0  0  0  0  0  0  0  0
    1.1614    1.2905    2.3599 H   0  0  0  0  0  0  0  0  0  0  0  0
   -0.7315   -0.9127   -0.3618 H   0  0  0  0  0  0  0  0  0  0  0  0
  1  2  2  0
  1  8  1  0
  1  9  1  0
  2  3  1  0
  2 12  1  0
  3  4  1  0
  3  6  1  0
  3 10  1  6
  4  5  1  0
  5  7  1  0
  6 11  1  0
M  END
