O[C@@H](C=C)OO_1
     RDKit          3D

 12 11  0  0  0  0  0  0  0  0999 V2000
   -0.0705   -0.1905   -1.0726 C   0  0  0  0  0  0  0  0  0  0  0  0
    0.7724    0.4166   -0.2660 C   0  0  0  0  0  0  0  0  0  0  0  0
    0.3289    1.0830    0.9975 C   0  0  1  0  0  0  0  0  0  0  0  0
   -0.7245    0.3776    1.5902 O   0  0  0  0  0  0  0  0  0  0  0  0
   -0.1605   -0.8056    2.1948 O   0  0  0  0  0  0  0  0  0  0  0  0
    1.3656    1.1782    1.9446 O   0  0  0  0  0  0  0  0  0  0  0  0
   -0.6466   -1.5376    1.7775 H   0  0  0  0  0  0  0  0  0  0  0  0
   -1.1185   -0.2361   -0.8434 H   0  0  0  0  0  0  0  0  0  0  0  0
    0.2589   -0.6654   -1.9770 H   0  0  0  0  0  0  0  0  0  0  0  0
   -0.0325    2.1020    0.7855 H   0  0  0  0  0  0  0  0  0  0  0  0
    1.2660    0.4004    2.5385 H   0  0  0  0  0  0  0  0  0  0  0  0
    1.8236    0.4551   -0.4996 H   0  0  0  0  0  0  0  0  0  0  0  0
  1  2  2  0
  1  8  1  0
  1  9  1  0
  2  3  1  0
  2 12  1  0
  3  4  1  0
  3  6  1  0
  3 10  1  6
  4  5  1  0
  5  7  1  0
  6 11  1  0
M  END
