O[C@@H](C=C)OO_8
     RDKit          3D

 12 11  0  0  0  0  0  0  0  0999 V2000
   -0.0079   -0.3293   -1.0438 C   0  0  0  0  0  0  0  0  0  0  0  0
    0.7474    0.5178   -0.3799 C   0  0  0  0  0  0  0  0  0  0  0  0
    0.4073    0.9676    1.0075 C   0  0  1  0  0  0  0  0  0  0  0  0
   -0.8703    0.5267    1.3732 O   0  0  0  0  0  0  0  0  0  0  0  0
   -0.8006   -0.9023    1.5177 O   0  0  0  0  0  0  0  0  0  0  0  0
    1.3379    0.5034    1.9555 O   0  0  0  0  0  0  0  0  0  0  0  0
   -0.2016   -1.0328    2.2775 H   0  0  0  0  0  0  0  0  0  0  0  0
   -0.9074   -0.7184   -0.6017 H   0  0  0  0  0  0  0  0  0  0  0  0
    0.2528   -0.6701   -2.0276 H   0  0  0  0  0  0  0  0  0  0  0  0
    0.3866    2.0689    1.0459 H   0  0  0  0  0  0  0  0  0  0  0  0
    1.0460    0.7749    2.8516 H   0  0  0  0  0  0  0  0  0  0  0  0
    1.6721    0.8717   -0.8061 H   0  0  0  0  0  0  0  0  0  0  0  0
  1  2  2  0
  1  8  1  0
  1  9  1  0
  2  3  1  0
  2 12  1  0
  3  4  1  0
  3  6  1  0
  3 10  1  6
  4  5  1  0
  5  7  1  0
  6 11  1  0
M  END
