O[C@@H](C=C)OO_13
     RDKit          3D

 12 11  0  0  0  0  0  0  0  0999 V2000
    0.7003    0.2025   -1.2806 C   0  0  0  0  0  0  0  0  0  0  0  0
   -0.1476   -0.0099   -0.2981 C   0  0  0  0  0  0  0  0  0  0  0  0
   -0.0811    0.7378    0.9938 C   0  0  1  0  0  0  0  0  0  0  0  0
   -0.8884    0.1240    1.9585 O   0  0  0  0  0  0  0  0  0  0  0  0
   -0.3022   -1.1602    2.2315 O   0  0  0  0  0  0  0  0  0  0  0  0
    1.2347    0.8202    1.4847 O   0  0  0  0  0  0  0  0  0  0  0  0
    0.5662   -0.9454    2.6245 H   0  0  0  0  0  0  0  0  0  0  0  0
    1.4844    0.9297   -1.1853 H   0  0  0  0  0  0  0  0  0  0  0  0
    0.6516   -0.3566   -2.1954 H   0  0  0  0  0  0  0  0  0  0  0  0
   -0.4657    1.7599    0.8482 H   0  0  0  0  0  0  0  0  0  0  0  0
    1.2197    1.2436    2.3689 H   0  0  0  0  0  0  0  0  0  0  0  0
   -0.9098   -0.7677   -0.3808 H   0  0  0  0  0  0  0  0  0  0  0  0
  1  2  2  0
  1  8  1  0
  1  9  1  0
  2  3  1  0
  2 12  1  0
  3  4  1  0
  3  6  1  0
  3 10  1  6
  4  5  1  0
  5  7  1  0
  6 11  1  0
M  END
