O[C@@H](C=C)OO_0
     RDKit          3D

 12 11  0  0  0  0  0  0  0  0999 V2000
    0.2308   -0.3040   -0.9746 C   0  0  0  0  0  0  0  0  0  0  0  0
    0.6679    0.7836   -0.3787 C   0  0  0  0  0  0  0  0  0  0  0  0
    0.3165    1.0931    1.0446 C   0  0  1  0  0  0  0  0  0  0  0  0
   -0.8782    0.4521    1.3960 O   0  0  0  0  0  0  0  0  0  0  0  0
   -0.5732   -0.9253    1.6989 O   0  0  0  0  0  0  0  0  0  0  0  0
    1.3290    0.6986    1.9294 O   0  0  0  0  0  0  0  0  0  0  0  0
   -0.9087   -1.0302    2.6060 H   0  0  0  0  0  0  0  0  0  0  0  0
   -0.4251   -0.9832   -0.4609 H   0  0  0  0  0  0  0  0  0  0  0  0
    0.5050   -0.5456   -1.9839 H   0  0  0  0  0  0  0  0  0  0  0  0
    0.1574    2.1746    1.1817 H   0  0  0  0  0  0  0  0  0  0  0  0
    1.2875   -0.2789    1.9976 H   0  0  0  0  0  0  0  0  0  0  0  0
    1.3532    1.4431   -0.8862 H   0  0  0  0  0  0  0  0  0  0  0  0
  1  2  2  0
  1  8  1  0
  1  9  1  0
  2  3  1  0
  2 12  1  0
  3  4  1  0
  3  6  1  0
  3 10  1  6
  4  5  1  0
  5  7  1  0
  6 11  1  0
M  END
