O[C@@H](C=C)OO_3
     RDKit          3D

 12 11  0  0  0  0  0  0  0  0999 V2000
    0.7327    0.5327   -1.3183 C   0  0  0  0  0  0  0  0  0  0  0  0
    0.1849   -0.1592   -0.3432 C   0  0  0  0  0  0  0  0  0  0  0  0
   -0.3861    0.4911    0.8760 C   0  0  1  0  0  0  0  0  0  0  0  0
   -0.7102   -0.4729    1.8389 O   0  0  0  0  0  0  0  0  0  0  0  0
    0.5062   -0.8403    2.5252 O   0  0  0  0  0  0  0  0  0  0  0  0
    0.4996    1.4220    1.4343 O   0  0  0  0  0  0  0  0  0  0  0  0
    0.2696   -0.7517    3.4650 H   0  0  0  0  0  0  0  0  0  0  0  0
    0.7920    1.6036   -1.2709 H   0  0  0  0  0  0  0  0  0  0  0  0
    1.1498    0.0521   -2.1826 H   0  0  0  0  0  0  0  0  0  0  0  0
   -1.3134    1.0274    0.6204 H   0  0  0  0  0  0  0  0  0  0  0  0
    1.1874    0.9087    1.9084 H   0  0  0  0  0  0  0  0  0  0  0  0
    0.1499   -1.2355   -0.3832 H   0  0  0  0  0  0  0  0  0  0  0  0
  1  2  2  0
  1  8  1  0
  1  9  1  0
  2  3  1  0
  2 12  1  0
  3  4  1  0
  3  6  1  0
  3 10  1  6
  4  5  1  0
  5  7  1  0
  6 11  1  0
M  END
