O[C@@H](C=C)OO_15
     RDKit          3D

 12 11  0  0  0  0  0  0  0  0999 V2000
    0.4626    0.6738   -1.3854 C   0  0  0  0  0  0  0  0  0  0  0  0
    0.6614   -0.1715   -0.3975 C   0  0  0  0  0  0  0  0  0  0  0  0
   -0.0412   -0.0428    0.9157 C   0  0  1  0  0  0  0  0  0  0  0  0
    0.4639   -0.9243    1.8792 O   0  0  0  0  0  0  0  0  0  0  0  0
   -0.2969   -0.7008    3.0826 O   0  0  0  0  0  0  0  0  0  0  0  0
   -0.0202    1.2645    1.4260 O   0  0  0  0  0  0  0  0  0  0  0  0
   -0.0709    0.2138    3.3414 H   0  0  0  0  0  0  0  0  0  0  0  0
   -0.2114    1.5026   -1.2778 H   0  0  0  0  0  0  0  0  0  0  0  0
    0.9696    0.5692   -2.3256 H   0  0  0  0  0  0  0  0  0  0  0  0
   -1.1044   -0.3083    0.7981 H   0  0  0  0  0  0  0  0  0  0  0  0
    0.9093    1.5019    1.6258 H   0  0  0  0  0  0  0  0  0  0  0  0
    1.3406   -1.0002   -0.5126 H   0  0  0  0  0  0  0  0  0  0  0  0
  1  2  2  0
  1  8  1  0
  1  9  1  0
  2  3  1  0
  2 12  1  0
  3  4  1  0
  3  6  1  0
  3 10  1  6
  4  5  1  0
  5  7  1  0
  6 11  1  0
M  END
