O[C@@H](C=C)OO_6
     RDKit          3D

 12 11  0  0  0  0  0  0  0  0999 V2000
    0.1200   -0.0793   -1.4361 C   0  0  0  0  0  0  0  0  0  0  0  0
    0.8299    0.5191   -0.5043 C   0  0  0  0  0  0  0  0  0  0  0  0
    0.3726    0.6109    0.9170 C   0  0  1  0  0  0  0  0  0  0  0  0
   -0.2169   -0.5749    1.3720 O   0  0  0  0  0  0  0  0  0  0  0  0
   -0.3680   -0.4703    2.8099 O   0  0  0  0  0  0  0  0  0  0  0  0
    1.4055    0.9633    1.8069 O   0  0  0  0  0  0  0  0  0  0  0  0
   -1.3272   -0.5458    2.9472 H   0  0  0  0  0  0  0  0  0  0  0  0
   -0.8186   -0.5447   -1.2010 H   0  0  0  0  0  0  0  0  0  0  0  0
    0.4623   -0.1412   -2.4513 H   0  0  0  0  0  0  0  0  0  0  0  0
   -0.4053    1.3872    1.0039 H   0  0  0  0  0  0  0  0  0  0  0  0
    1.2281    0.4850    2.6481 H   0  0  0  0  0  0  0  0  0  0  0  0
    1.7799    0.9686   -0.7424 H   0  0  0  0  0  0  0  0  0  0  0  0
  1  2  2  0
  1  8  1  0
  1  9  1  0
  2  3  1  0
  2 12  1  0
  3  4  1  0
  3  6  1  0
  3 10  1  6
  4  5  1  0
  5  7  1  0
  6 11  1  0
M  END
