O[C@@H](C=C)OO_5
     RDKit          3D

 12 11  0  0  0  0  0  0  0  0999 V2000
    0.7193   -0.1567   -1.3260 C   0  0  0  0  0  0  0  0  0  0  0  0
    0.2244    0.7975   -0.5690 C   0  0  0  0  0  0  0  0  0  0  0  0
    0.2177    0.6794    0.9244 C   0  0  1  0  0  0  0  0  0  0  0  0
   -0.7286   -0.2483    1.3771 O   0  0  0  0  0  0  0  0  0  0  0  0
   -0.4564   -0.5146    2.7747 O   0  0  0  0  0  0  0  0  0  0  0  0
    1.4730    0.3119    1.4422 O   0  0  0  0  0  0  0  0  0  0  0  0
   -1.2752   -0.2440    3.2230 H   0  0  0  0  0  0  0  0  0  0  0  0
    1.1494   -1.0404   -0.8920 H   0  0  0  0  0  0  0  0  0  0  0  0
    0.7133   -0.0887   -2.3977 H   0  0  0  0  0  0  0  0  0  0  0  0
   -0.0519    1.6424    1.3889 H   0  0  0  0  0  0  0  0  0  0  0  0
    1.2998   -0.2297    2.2448 H   0  0  0  0  0  0  0  0  0  0  0  0
   -0.2224    1.6692   -1.0206 H   0  0  0  0  0  0  0  0  0  0  0  0
  1  2  2  0
  1  8  1  0
  1  9  1  0
  2  3  1  0
  2 12  1  0
  3  4  1  0
  3  6  1  0
  3 10  1  1
  4  5  1  0
  5  7  1  0
  6 11  1  0
M  END
