O[C@@H](C=C)OO_4
     RDKit          3D

 12 11  0  0  0  0  0  0  0  0999 V2000
    0.6289    0.6275   -1.4892 C   0  0  0  0  0  0  0  0  0  0  0  0
    0.4315   -0.2417   -0.5222 C   0  0  0  0  0  0  0  0  0  0  0  0
    0.0017    0.1754    0.8485 C   0  0  1  0  0  0  0  0  0  0  0  0
    0.2780   -0.7962    1.8193 O   0  0  0  0  0  0  0  0  0  0  0  0
    0.0869   -0.1887    3.1199 O   0  0  0  0  0  0  0  0  0  0  0  0
    0.5794    1.3915    1.2591 O   0  0  0  0  0  0  0  0  0  0  0  0
   -0.6140   -0.7273    3.5241 H   0  0  0  0  0  0  0  0  0  0  0  0
    0.5045    1.6803   -1.3179 H   0  0  0  0  0  0  0  0  0  0  0  0
    0.9410    0.3189   -2.4686 H   0  0  0  0  0  0  0  0  0  0  0  0
   -1.0911    0.3201    0.8644 H   0  0  0  0  0  0  0  0  0  0  0  0
    0.7397    1.3140    2.2266 H   0  0  0  0  0  0  0  0  0  0  0  0
    0.5759   -1.2958   -0.6941 H   0  0  0  0  0  0  0  0  0  0  0  0
  1  2  2  0
  1  8  1  0
  1  9  1  0
  2  3  1  0
  2 12  1  0
  3  4  1  0
  3  6  1  0
  3 10  1  6
  4  5  1  0
  5  7  1  0
  6 11  1  0
M  END
