O[C@@H](C=C)OO_17
     RDKit          3D

 12 11  0  0  0  0  0  0  0  0999 V2000
    0.6174    0.5115   -1.2532 C   0  0  0  0  0  0  0  0  0  0  0  0
    0.2524   -0.1922   -0.2033 C   0  0  0  0  0  0  0  0  0  0  0  0
   -0.2995    0.4274    1.0385 C   0  0  1  0  0  0  0  0  0  0  0  0
   -0.9067   -0.5533    1.8350 O   0  0  0  0  0  0  0  0  0  0  0  0
    0.1528   -1.3002    2.4405 O   0  0  0  0  0  0  0  0  0  0  0  0
    0.6938    1.0810    1.7952 O   0  0  0  0  0  0  0  0  0  0  0  0
    0.5380   -0.6515    3.0611 H   0  0  0  0  0  0  0  0  0  0  0  0
    0.5052    1.5783   -1.2742 H   0  0  0  0  0  0  0  0  0  0  0  0
    1.0330    0.0427   -2.1244 H   0  0  0  0  0  0  0  0  0  0  0  0
   -1.0873    1.1553    0.7874 H   0  0  0  0  0  0  0  0  0  0  0  0
    1.1732    1.7399    1.2467 H   0  0  0  0  0  0  0  0  0  0  0  0
    0.3898   -1.2608   -0.1796 H   0  0  0  0  0  0  0  0  0  0  0  0
  1  2  2  0
  1  8  1  0
  1  9  1  0
  2  3  1  0
  2 12  1  0
  3  4  1  0
  3  6  1  0
  3 10  1  6
  4  5  1  0
  5  7  1  0
  6 11  1  0
M  END
