O[C@@H](C=C)OO_10
     RDKit          3D

 12 11  0  0  0  0  0  0  0  0999 V2000
    0.0286   -0.3334   -1.0489 C   0  0  0  0  0  0  0  0  0  0  0  0
    0.7459    0.5619   -0.4066 C   0  0  0  0  0  0  0  0  0  0  0  0
    0.4297    0.9764    0.9974 C   0  0  1  0  0  0  0  0  0  0  0  0
   -0.8344    0.5114    1.3832 O   0  0  0  0  0  0  0  0  0  0  0  0
   -0.7581   -0.9175    1.5077 O   0  0  0  0  0  0  0  0  0  0  0  0
    1.4031    0.5286    1.9086 O   0  0  0  0  0  0  0  0  0  0  0  0
   -0.5051   -1.0609    2.4356 H   0  0  0  0  0  0  0  0  0  0  0  0
   -0.8248   -0.7865   -0.5777 H   0  0  0  0  0  0  0  0  0  0  0  0
    0.2761   -0.6500   -2.0441 H   0  0  0  0  0  0  0  0  0  0  0  0
    0.3866    2.0764    1.0562 H   0  0  0  0  0  0  0  0  0  0  0  0
    1.0859    0.6919    2.8215 H   0  0  0  0  0  0  0  0  0  0  0  0
    1.6288    0.9796   -0.8630 H   0  0  0  0  0  0  0  0  0  0  0  0
  1  2  2  0
  1  8  1  0
  1  9  1  0
  2  3  1  0
  2 12  1  0
  3  4  1  0
  3  6  1  0
  3 10  1  6
  4  5  1  0
  5  7  1  0
  6 11  1  0
M  END
