O[C@@H](C=C)OO_12
     RDKit          3D

 12 11  0  0  0  0  0  0  0  0999 V2000
    0.1692   -0.3348   -0.9697 C   0  0  0  0  0  0  0  0  0  0  0  0
    0.6151    0.6979   -0.2891 C   0  0  0  0  0  0  0  0  0  0  0  0
    0.1953    0.9419    1.1278 C   0  0  1  0  0  0  0  0  0  0  0  0
   -1.0784    0.4005    1.3542 O   0  0  0  0  0  0  0  0  0  0  0  0
   -0.9098   -1.0104    1.5287 O   0  0  0  0  0  0  0  0  0  0  0  0
    1.1000    0.3858    2.0544 O   0  0  0  0  0  0  0  0  0  0  0  0
   -0.4376   -1.0579    2.3817 H   0  0  0  0  0  0  0  0  0  0  0  0
   -0.5394   -1.0141   -0.5312 H   0  0  0  0  0  0  0  0  0  0  0  0
    0.4850   -0.5291   -1.9773 H   0  0  0  0  0  0  0  0  0  0  0  0
    0.1085    2.0220    1.3293 H   0  0  0  0  0  0  0  0  0  0  0  0
    2.0108    0.7150    1.8883 H   0  0  0  0  0  0  0  0  0  0  0  0
    1.3436    1.3611   -0.7272 H   0  0  0  0  0  0  0  0  0  0  0  0
  1  2  2  0
  1  8  1  0
  1  9  1  0
  2  3  1  0
  2 12  1  0
  3  4  1  0
  3  6  1  0
  3 10  1  1
  4  5  1  0
  5  7  1  0
  6 11  1  0
M  END
