O[C@@H](C=C)OO_7
     RDKit          3D

 12 11  0  0  0  0  0  0  0  0999 V2000
    0.8214    0.5497   -1.4423 C   0  0  0  0  0  0  0  0  0  0  0  0
    0.1765   -0.1804   -0.5589 C   0  0  0  0  0  0  0  0  0  0  0  0
   -0.1276    0.3180    0.8184 C   0  0  1  0  0  0  0  0  0  0  0  0
   -0.3832   -0.7230    1.7210 O   0  0  0  0  0  0  0  0  0  0  0  0
   -0.2558   -0.2109    3.0739 O   0  0  0  0  0  0  0  0  0  0  0  0
    0.8821    1.1447    1.3335 O   0  0  0  0  0  0  0  0  0  0  0  0
    0.1780   -0.9371    3.5540 H   0  0  0  0  0  0  0  0  0  0  0  0
    1.1725    1.5334   -1.1931 H   0  0  0  0  0  0  0  0  0  0  0  0
    1.0353    0.1826   -2.4280 H   0  0  0  0  0  0  0  0  0  0  0  0
   -1.0499    0.9228    0.7921 H   0  0  0  0  0  0  0  0  0  0  0  0
    0.7743    1.1508    2.3085 H   0  0  0  0  0  0  0  0  0  0  0  0
   -0.1611   -1.1728   -0.8093 H   0  0  0  0  0  0  0  0  0  0  0  0
  1  2  2  0
  1  8  1  0
  1  9  1  0
  2  3  1  0
  2 12  1  0
  3  4  1  0
  3  6  1  0
  3 10  1  6
  4  5  1  0
  5  7  1  0
  6 11  1  0
M  END
