O[C@@H](C=C)OO
     RDKit          3D

 12 11  0  0  0  0  0  0  0  0999 V2000
    0.0384    0.0416   -1.3018 C   0  0  0  0  0  0  0  0  0  0  0  0
    0.8849    0.3305   -0.3096 C   0  0  0  0  0  0  0  0  0  0  0  0
    0.4171    0.4131    1.1179 C   0  0  1  0  0  0  0  0  0  0  0  0
   -0.0292   -0.8567    1.5255 O   0  0  0  0  0  0  0  0  0  0  0  0
   -0.6248   -0.6855    2.6918 O   0  0  0  0  0  0  0  0  0  0  0  0
    1.4813    0.8189    1.9396 O   0  0  0  0  0  0  0  0  0  0  0  0
   -1.5913   -0.8021    2.5029 H   0  0  0  0  0  0  0  0  0  0  0  0
   -1.0122   -0.1475   -1.1020 H   0  0  0  0  0  0  0  0  0  0  0  0
    0.3966   -0.0064   -2.3250 H   0  0  0  0  0  0  0  0  0  0  0  0
   -0.4187    1.1540    1.1739 H   0  0  0  0  0  0  0  0  0  0  0  0
    1.5921    1.7963    1.8025 H   0  0  0  0  0  0  0  0  0  0  0  0
    1.9281    0.5217   -0.5458 H   0  0  0  0  0  0  0  0  0  0  0  0
  1  2  2  0
  1  8  1  0
  1  9  1  0
  2  3  1  0
  2 12  1  0
  3  4  1  0
  3  6  1  0
  3 10  1  6
  4  5  1  0
  5  7  1  0
  6 11  1  0
M  END
