O[C@H](C=O)CO_11
     RDKit          3D

 12 11  0  0  0  0  0  0  0  0999 V2000
    1.2462   -0.5340    0.2902 C   0  0  0  0  0  0  0  0  0  0  0  0
    0.9403    0.5786    1.2925 C   0  0  1  0  0  0  0  0  0  0  0  0
   -0.5410    0.6968    1.4982 C   0  0  0  0  0  0  0  0  0  0  0  0
    1.0183   -1.7753    0.9028 O   0  0  0  0  0  0  0  0  0  0  0  0
    1.6155    0.2942    2.5003 O   0  0  0  0  0  0  0  0  0  0  0  0
   -1.3186    0.7414    0.5931 O   0  0  0  0  0  0  0  0  0  0  0  0
    1.4730   -0.6555    2.7083 H   0  0  0  0  0  0  0  0  0  0  0  0
    0.5989   -0.4334   -0.5925 H   0  0  0  0  0  0  0  0  0  0  0  0
    2.2966   -0.4926   -0.0263 H   0  0  0  0  0  0  0  0  0  0  0  0
   -0.9355    0.7711    2.5033 H   0  0  0  0  0  0  0  0  0  0  0  0
    1.0787   -2.5122    0.2560 H   0  0  0  0  0  0  0  0  0  0  0  0
    1.3227    1.5485    0.9339 H   0  0  0  0  0  0  0  0  0  0  0  0
  1  2  1  0
  1  4  1  0
  1  8  1  0
  1  9  1  0
  2  3  1  0
  2  5  1  0
  2 12  1  6
  3  6  2  0
  3 10  1  0
  4 11  1  0
  5  7  1  0
M  END
