O[C@H](C=O)CO_1
     RDKit          3D

 12 11  0  0  0  0  0  0  0  0999 V2000
    0.9417   -0.6868    0.1086 C   0  0  0  0  0  0  0  0  0  0  0  0
    0.9937    0.2767    1.2914 C   0  0  1  0  0  0  0  0  0  0  0  0
   -0.2858    1.0360    1.4510 C   0  0  0  0  0  0  0  0  0  0  0  0
    2.0814   -1.4970    0.1091 O   0  0  0  0  0  0  0  0  0  0  0  0
    1.2323   -0.4696    2.4662 O   0  0  0  0  0  0  0  0  0  0  0  0
   -1.2174    0.5206    1.9863 O   0  0  0  0  0  0  0  0  0  0  0  0
    0.3625   -0.7063    2.8582 H   0  0  0  0  0  0  0  0  0  0  0  0
    0.0593   -1.3350    0.1896 H   0  0  0  0  0  0  0  0  0  0  0  0
    0.8862   -0.1623   -0.8533 H   0  0  0  0  0  0  0  0  0  0  0  0
   -0.4154    2.0255    1.0332 H   0  0  0  0  0  0  0  0  0  0  0  0
    2.3035   -1.7323    1.0390 H   0  0  0  0  0  0  0  0  0  0  0  0
    1.8530    0.9580    1.1806 H   0  0  0  0  0  0  0  0  0  0  0  0
  1  2  1  0
  1  4  1  0
  1  8  1  0
  1  9  1  0
  2  3  1  0
  2  5  1  0
  2 12  1  6
  3  6  2  0
  3 10  1  0
  4 11  1  0
  5  7  1  0
M  END
