O[C@H](C=O)CO_16
     RDKit          3D

 12 11  0  0  0  0  0  0  0  0999 V2000
    1.2764   -0.9541    0.5516 C   0  0  0  0  0  0  0  0  0  0  0  0
    0.9230    0.4353    1.0954 C   0  0  1  0  0  0  0  0  0  0  0  0
   -0.3900    0.4478    1.8120 C   0  0  0  0  0  0  0  0  0  0  0  0
    0.3121   -1.4092   -0.3708 O   0  0  0  0  0  0  0  0  0  0  0  0
    1.9319    0.9088    1.9726 O   0  0  0  0  0  0  0  0  0  0  0  0
   -0.6014    1.2181    2.6969 O   0  0  0  0  0  0  0  0  0  0  0  0
    1.5201    1.5188    2.6243 H   0  0  0  0  0  0  0  0  0  0  0  0
    2.2599   -0.9231    0.0652 H   0  0  0  0  0  0  0  0  0  0  0  0
    1.3371   -1.6615    1.3881 H   0  0  0  0  0  0  0  0  0  0  0  0
   -1.1911   -0.2082    1.4972 H   0  0  0  0  0  0  0  0  0  0  0  0
    0.5441   -2.2941   -0.7286 H   0  0  0  0  0  0  0  0  0  0  0  0
    0.8731    1.1491    0.2559 H   0  0  0  0  0  0  0  0  0  0  0  0
  1  2  1  0
  1  4  1  0
  1  8  1  0
  1  9  1  0
  2  3  1  0
  2  5  1  0
  2 12  1  6
  3  6  2  0
  3 10  1  0
  4 11  1  0
  5  7  1  0
M  END
