O[C@H](C=O)CO_9
     RDKit          3D

 12 11  0  0  0  0  0  0  0  0999 V2000
    0.8010   -0.8527    0.1328 C   0  0  0  0  0  0  0  0  0  0  0  0
    0.9008    0.2006    1.2328 C   0  0  1  0  0  0  0  0  0  0  0  0
   -0.3819    0.9566    1.4203 C   0  0  0  0  0  0  0  0  0  0  0  0
    1.9825   -1.5975    0.0830 O   0  0  0  0  0  0  0  0  0  0  0  0
    1.3303   -0.4312    2.4262 O   0  0  0  0  0  0  0  0  0  0  0  0
   -0.5238    2.0972    1.0944 O   0  0  0  0  0  0  0  0  0  0  0  0
    1.3471    0.2157    3.1624 H   0  0  0  0  0  0  0  0  0  0  0  0
   -0.0288   -1.5411    0.3376 H   0  0  0  0  0  0  0  0  0  0  0  0
    0.6316   -0.4035   -0.8543 H   0  0  0  0  0  0  0  0  0  0  0  0
   -1.2293    0.4522    1.8625 H   0  0  0  0  0  0  0  0  0  0  0  0
    2.2734   -1.7876    1.0040 H   0  0  0  0  0  0  0  0  0  0  0  0
    1.6922    0.9188    0.9581 H   0  0  0  0  0  0  0  0  0  0  0  0
  1  2  1  0
  1  4  1  0
  1  8  1  0
  1  9  1  0
  2  3  1  0
  2  5  1  0
  2 12  1  6
  3  6  2  0
  3 10  1  0
  4 11  1  0
  5  7  1  0
M  END
