O[C@H](C=O)CO_15
     RDKit          3D

 12 11  0  0  0  0  0  0  0  0999 V2000
    1.3153   -0.9988    0.6757 C   0  0  0  0  0  0  0  0  0  0  0  0
    0.8589    0.4324    0.9871 C   0  0  1  0  0  0  0  0  0  0  0  0
   -0.3930    0.4273    1.8076 C   0  0  0  0  0  0  0  0  0  0  0  0
    0.4177   -1.6907   -0.1578 O   0  0  0  0  0  0  0  0  0  0  0  0
    1.8613    1.1374    1.7003 O   0  0  0  0  0  0  0  0  0  0  0  0
   -0.3292    0.3630    2.9955 O   0  0  0  0  0  0  0  0  0  0  0  0
    1.7005    1.0151    2.6622 H   0  0  0  0  0  0  0  0  0  0  0  0
    2.3124   -1.0014    0.2166 H   0  0  0  0  0  0  0  0  0  0  0  0
    1.3872   -1.5688    1.6100 H   0  0  0  0  0  0  0  0  0  0  0  0
   -1.3702    0.3736    1.3452 H   0  0  0  0  0  0  0  0  0  0  0  0
    0.3329   -1.2459   -1.0295 H   0  0  0  0  0  0  0  0  0  0  0  0
    0.7015    0.9845    0.0470 H   0  0  0  0  0  0  0  0  0  0  0  0
  1  2  1  0
  1  4  1  0
  1  8  1  0
  1  9  1  0
  2  3  1  0
  2  5  1  0
  2 12  1  6
  3  6  2  0
  3 10  1  0
  4 11  1  0
  5  7  1  0
M  END
