O[C@H](C=O)CO_3
     RDKit          3D

 12 11  0  0  0  0  0  0  0  0999 V2000
    1.1718   -0.6382    0.0042 C   0  0  0  0  0  0  0  0  0  0  0  0
    0.9916    0.3705    1.1385 C   0  0  1  0  0  0  0  0  0  0  0  0
   -0.4450    0.5925    1.4969 C   0  0  0  0  0  0  0  0  0  0  0  0
    0.7821   -1.9064    0.4409 O   0  0  0  0  0  0  0  0  0  0  0  0
    1.6603   -0.1186    2.2818 O   0  0  0  0  0  0  0  0  0  0  0  0
   -0.7447    0.9539    2.5921 O   0  0  0  0  0  0  0  0  0  0  0  0
    1.2564    0.2948    3.0769 H   0  0  0  0  0  0  0  0  0  0  0  0
    0.5740   -0.3793   -0.8782 H   0  0  0  0  0  0  0  0  0  0  0  0
    2.2246   -0.6985   -0.3023 H   0  0  0  0  0  0  0  0  0  0  0  0
   -1.2309    0.4503    0.7676 H   0  0  0  0  0  0  0  0  0  0  0  0
    1.1034   -2.0324    1.3624 H   0  0  0  0  0  0  0  0  0  0  0  0
    1.4517    1.3388    0.8788 H   0  0  0  0  0  0  0  0  0  0  0  0
  1  2  1  0
  1  4  1  0
  1  8  1  0
  1  9  1  0
  2  3  1  0
  2  5  1  0
  2 12  1  6
  3  6  2  0
  3 10  1  0
  4 11  1  0
  5  7  1  0
M  END
