O[C@H](C=O)CO_5
     RDKit          3D

 12 11  0  0  0  0  0  0  0  0999 V2000
    1.4184   -0.9379    0.4552 C   0  0  0  0  0  0  0  0  0  0  0  0
    1.0140    0.3246    1.2267 C   0  0  1  0  0  0  0  0  0  0  0  0
   -0.4102    0.2097    1.6864 C   0  0  0  0  0  0  0  0  0  0  0  0
    0.5823   -1.1667   -0.6506 O   0  0  0  0  0  0  0  0  0  0  0  0
    1.9137    0.5573    2.3064 O   0  0  0  0  0  0  0  0  0  0  0  0
   -1.3143   -0.0463    0.9489 O   0  0  0  0  0  0  0  0  0  0  0  0
    1.6659    1.3689    2.7985 H   0  0  0  0  0  0  0  0  0  0  0  0
    2.4500   -0.8632    0.0892 H   0  0  0  0  0  0  0  0  0  0  0  0
    1.3678   -1.8122    1.1166 H   0  0  0  0  0  0  0  0  0  0  0  0
   -0.6467    0.3440    2.7334 H   0  0  0  0  0  0  0  0  0  0  0  0
   -0.3357   -0.9349   -0.3916 H   0  0  0  0  0  0  0  0  0  0  0  0
    1.0898    1.1843    0.5407 H   0  0  0  0  0  0  0  0  0  0  0  0
  1  2  1  0
  1  4  1  0
  1  8  1  0
  1  9  1  0
  2  3  1  0
  2  5  1  0
  2 12  1  6
  3  6  2  0
  3 10  1  0
  4 11  1  0
  5  7  1  0
M  END
