O[C@H](C=O)CO_6
     RDKit          3D

 12 11  0  0  0  0  0  0  0  0999 V2000
    1.4091   -0.8686    0.6003 C   0  0  0  0  0  0  0  0  0  0  0  0
    0.8784    0.3916    1.2967 C   0  0  1  0  0  0  0  0  0  0  0  0
   -0.5829    0.2345    1.6017 C   0  0  0  0  0  0  0  0  0  0  0  0
    0.7152   -1.1389   -0.5908 O   0  0  0  0  0  0  0  0  0  0  0  0
    1.6148    0.6878    2.4800 O   0  0  0  0  0  0  0  0  0  0  0  0
   -1.3817   -0.1697    0.8117 O   0  0  0  0  0  0  0  0  0  0  0  0
    2.5679    0.8058    2.2802 H   0  0  0  0  0  0  0  0  0  0  0  0
    2.4724   -0.7723    0.3505 H   0  0  0  0  0  0  0  0  0  0  0  0
    1.3050   -1.7353    1.2654 H   0  0  0  0  0  0  0  0  0  0  0  0
   -0.9492    0.5189    2.5802 H   0  0  0  0  0  0  0  0  0  0  0  0
   -0.2395   -0.9777   -0.4310 H   0  0  0  0  0  0  0  0  0  0  0  0
    0.9858    1.2514    0.6149 H   0  0  0  0  0  0  0  0  0  0  0  0
  1  2  1  0
  1  4  1  0
  1  8  1  0
  1  9  1  0
  2  3  1  0
  2  5  1  0
  2 12  1  6
  3  6  2  0
  3 10  1  0
  4 11  1  0
  5  7  1  0
M  END
