O[C@H](C=O)CO_12
     RDKit          3D

 12 11  0  0  0  0  0  0  0  0999 V2000
    1.3234   -1.1104    0.7085 C   0  0  0  0  0  0  0  0  0  0  0  0
    0.9286    0.3278    1.0661 C   0  0  1  0  0  0  0  0  0  0  0  0
   -0.3801    0.3985    1.7867 C   0  0  0  0  0  0  0  0  0  0  0  0
    0.3945   -1.7396   -0.1410 O   0  0  0  0  0  0  0  0  0  0  0  0
    1.9240    0.9426    1.8677 O   0  0  0  0  0  0  0  0  0  0  0  0
   -0.6388    1.3239    2.4922 O   0  0  0  0  0  0  0  0  0  0  0  0
    1.4976    1.6368    2.4178 H   0  0  0  0  0  0  0  0  0  0  0  0
    2.3186   -1.1401    0.2463 H   0  0  0  0  0  0  0  0  0  0  0  0
    1.3806   -1.7099    1.6247 H   0  0  0  0  0  0  0  0  0  0  0  0
   -1.1313   -0.3671    1.6429 H   0  0  0  0  0  0  0  0  0  0  0  0
    0.3223   -1.2631   -0.9966 H   0  0  0  0  0  0  0  0  0  0  0  0
    0.8560    0.9283    0.1444 H   0  0  0  0  0  0  0  0  0  0  0  0
  1  2  1  0
  1  4  1  0
  1  8  1  0
  1  9  1  0
  2  3  1  0
  2  5  1  0
  2 12  1  6
  3  6  2  0
  3 10  1  0
  4 11  1  0
  5  7  1  0
M  END
