O[C@H](C=O)CO
     RDKit          3D

 12 11  0  0  0  0  0  0  0  0999 V2000
    1.2004   -0.6401    0.3490 C   0  0  0  0  0  0  0  0  0  0  0  0
    0.8637    0.4517    1.3730 C   0  0  1  0  0  0  0  0  0  0  0  0
   -0.6228    0.6351    1.4919 C   0  0  0  0  0  0  0  0  0  0  0  0
    0.6785   -1.8732    0.7636 O   0  0  0  0  0  0  0  0  0  0  0  0
    1.3889    0.1120    2.6297 O   0  0  0  0  0  0  0  0  0  0  0  0
   -1.2722    1.0481    0.5440 O   0  0  0  0  0  0  0  0  0  0  0  0
    2.3679    0.2720    2.5840 H   0  0  0  0  0  0  0  0  0  0  0  0
    0.7810   -0.3655   -0.6453 H   0  0  0  0  0  0  0  0  0  0  0  0
    2.3063   -0.7171    0.2493 H   0  0  0  0  0  0  0  0  0  0  0  0
   -1.1287    0.4146    2.4269 H   0  0  0  0  0  0  0  0  0  0  0  0
    0.9295   -2.5281    0.0615 H   0  0  0  0  0  0  0  0  0  0  0  0
    1.3027    1.4181    1.0322 H   0  0  0  0  0  0  0  0  0  0  0  0
  1  2  1  0
  1  4  1  0
  1  8  1  0
  1  9  1  0
  2  3  1  0
  2  5  1  0
  2 12  1  6
  3  6  2  0
  3 10  1  0
  4 11  1  0
  5  7  1  0
M  END
