O[C@H](C=O)CO_14
     RDKit          3D

 12 11  0  0  0  0  0  0  0  0999 V2000
    1.2691   -0.8333    0.5165 C   0  0  0  0  0  0  0  0  0  0  0  0
    0.8683    0.5495    1.0429 C   0  0  1  0  0  0  0  0  0  0  0  0
   -0.4025    0.4686    1.8290 C   0  0  0  0  0  0  0  0  0  0  0  0
    0.3262   -1.3204   -0.4112 O   0  0  0  0  0  0  0  0  0  0  0  0
    1.8808    1.0906    1.8741 O   0  0  0  0  0  0  0  0  0  0  0  0
   -0.3718    0.2014    2.9896 O   0  0  0  0  0  0  0  0  0  0  0  0
    1.6923    0.8265    2.8019 H   0  0  0  0  0  0  0  0  0  0  0  0
    2.2543   -0.7789    0.0357 H   0  0  0  0  0  0  0  0  0  0  0  0
    1.3384   -1.5312    1.3606 H   0  0  0  0  0  0  0  0  0  0  0  0
   -1.3687    0.5370    1.3452 H   0  0  0  0  0  0  0  0  0  0  0  0
    0.5556   -2.2249   -0.7183 H   0  0  0  0  0  0  0  0  0  0  0  0
    0.7533    1.2428    0.1938 H   0  0  0  0  0  0  0  0  0  0  0  0
  1  2  1  0
  1  4  1  0
  1  8  1  0
  1  9  1  0
  2  3  1  0
  2  5  1  0
  2 12  1  6
  3  6  2  0
  3 10  1  0
  4 11  1  0
  5  7  1  0
M  END
