CC(=C=O)O.O_3
     RDKit          3D

 12 10  0  0  0  0  0  0  0  0999 V2000
   -0.7387    0.1507    0.6720 C   0  0  0  0  0  0  0  0  0  0  0  0
    0.6875   -0.1981    0.8590 C   0  0  0  0  0  0  0  0  0  0  0  0
    1.5876    0.2224   -0.0488 C   0  0  0  0  0  0  0  0  0  0  0  0
    1.0750   -0.9386    1.9271 O   0  0  0  0  0  0  0  0  0  0  0  0
   -2.8423    1.7932    2.0045 O   0  0  0  0  0  0  0  0  0  0  0  0
    2.3336    0.6118   -0.8633 O   0  0  0  0  0  0  0  0  0  0  0  0
   -2.6631    2.7046    2.2854 H   0  0  0  0  0  0  0  0  0  0  0  0
   -0.8535    0.9403   -0.0727 H   0  0  0  0  0  0  0  0  0  0  0  0
   -1.3084   -0.7168    0.3367 H   0  0  0  0  0  0  0  0  0  0  0  0
   -3.8040    1.6822    2.0697 H   0  0  0  0  0  0  0  0  0  0  0  0
   -1.1747    0.5092    1.6058 H   0  0  0  0  0  0  0  0  0  0  0  0
    0.3017   -1.1694    2.4868 H   0  0  0  0  0  0  0  0  0  0  0  0
  1  2  1  0
  1  8  1  0
  1  9  1  0
  1 11  1  0
  2  3  2  0
  2  4  1  0
  3  6  2  0
  4 12  1  0
  5  7  1  0
  5 10  1  0
M  END
