CC(=C=O)O.O_0
     RDKit          3D

 12 10  0  0  0  0  0  0  0  0999 V2000
   -1.0643   -0.6353    0.7682 C   0  0  0  0  0  0  0  0  0  0  0  0
    0.3239   -0.2574    1.1267 C   0  0  0  0  0  0  0  0  0  0  0  0
    0.5709    1.0223    1.4630 C   0  0  0  0  0  0  0  0  0  0  0  0
    1.3181   -1.1793    1.1152 O   0  0  0  0  0  0  0  0  0  0  0  0
   -2.2078    2.6286    1.2816 O   0  0  0  0  0  0  0  0  0  0  0  0
    0.6362    2.1608    1.7319 O   0  0  0  0  0  0  0  0  0  0  0  0
   -1.2474    2.5477    1.4510 H   0  0  0  0  0  0  0  0  0  0  0  0
   -1.1086   -1.0183   -0.2522 H   0  0  0  0  0  0  0  0  0  0  0  0
   -1.4412   -1.4048    1.4433 H   0  0  0  0  0  0  0  0  0  0  0  0
   -2.4194    3.5604    1.4509 H   0  0  0  0  0  0  0  0  0  0  0  0
   -1.7335    0.2263    0.8333 H   0  0  0  0  0  0  0  0  0  0  0  0
    0.9736   -2.0595    0.8494 H   0  0  0  0  0  0  0  0  0  0  0  0
  1  2  1  0
  1  8  1  0
  1  9  1  0
  1 11  1  0
  2  3  2  0
  2  4  1  0
  3  6  2  0
  4 12  1  0
  5  7  1  0
  5 10  1  0
M  END
