CC(=C=O)O.O_5
     RDKit          3D

 12 10  0  0  0  0  0  0  0  0999 V2000
   -0.3179    0.3831    1.5665 C   0  0  0  0  0  0  0  0  0  0  0  0
    0.5878   -0.1934    0.5477 C   0  0  0  0  0  0  0  0  0  0  0  0
    1.7010    0.4812    0.2056 C   0  0  0  0  0  0  0  0  0  0  0  0
    0.2992   -1.3890   -0.0237 O   0  0  0  0  0  0  0  0  0  0  0  0
   -3.0551    1.5563    1.7114 O   0  0  0  0  0  0  0  0  0  0  0  0
    2.6556    1.1052   -0.0607 O   0  0  0  0  0  0  0  0  0  0  0  0
   -3.3919    2.1535    1.0247 H   0  0  0  0  0  0  0  0  0  0  0  0
   -0.2426   -0.1656    2.5062 H   0  0  0  0  0  0  0  0  0  0  0  0
   -0.0709    1.4278    1.7629 H   0  0  0  0  0  0  0  0  0  0  0  0
   -3.6710    1.6387    2.4567 H   0  0  0  0  0  0  0  0  0  0  0  0
   -1.3544    0.3452    1.2275 H   0  0  0  0  0  0  0  0  0  0  0  0
   -0.5392   -1.7514    0.3375 H   0  0  0  0  0  0  0  0  0  0  0  0
  1  2  1  0
  1  8  1  0
  1  9  1  0
  1 11  1  0
  2  3  2  0
  2  4  1  0
  3  6  2  0
  4 12  1  0
  5  7  1  0
  5 10  1  0
M  END
