CC(=C=O)O.O_7
     RDKit          3D

 12 10  0  0  0  0  0  0  0  0999 V2000
   -0.2751    0.4191    1.6129 C   0  0  0  0  0  0  0  0  0  0  0  0
    0.5214   -0.2978    0.5917 C   0  0  0  0  0  0  0  0  0  0  0  0
    1.4461    0.3800   -0.1131 C   0  0  0  0  0  0  0  0  0  0  0  0
    0.3174   -1.6209    0.3749 O   0  0  0  0  0  0  0  0  0  0  0  0
   -2.9599    1.7075    1.6621 O   0  0  0  0  0  0  0  0  0  0  0  0
    2.2363    1.0124   -0.7024 O   0  0  0  0  0  0  0  0  0  0  0  0
   -3.5992    1.9292    2.3574 H   0  0  0  0  0  0  0  0  0  0  0  0
   -0.0330    1.4833    1.6218 H   0  0  0  0  0  0  0  0  0  0  0  0
   -1.3418    0.3233    1.4051 H   0  0  0  0  0  0  0  0  0  0  0  0
   -3.2449    2.1997    0.8759 H   0  0  0  0  0  0  0  0  0  0  0  0
   -0.0796    0.0191    2.6087 H   0  0  0  0  0  0  0  0  0  0  0  0
   -0.3872   -1.9634    0.9672 H   0  0  0  0  0  0  0  0  0  0  0  0
  1  2  1  0
  1  8  1  0
  1  9  1  0
  1 11  1  0
  2  3  2  0
  2  4  1  0
  3  6  2  0
  4 12  1  0
  5  7  1  0
  5 10  1  0
M  END
