CC(=C=O)O.O_1
     RDKit          3D

 12 10  0  0  0  0  0  0  0  0999 V2000
   -0.7587   -0.1222    0.0675 C   0  0  0  0  0  0  0  0  0  0  0  0
    0.4709    0.3155    0.7669 C   0  0  0  0  0  0  0  0  0  0  0  0
    1.6617    0.0328    0.2083 C   0  0  0  0  0  0  0  0  0  0  0  0
    0.4015    0.9761    1.9497 O   0  0  0  0  0  0  0  0  0  0  0  0
   -2.3980    1.3006    2.6723 O   0  0  0  0  0  0  0  0  0  0  0  0
    2.6755   -0.2345   -0.3136 O   0  0  0  0  0  0  0  0  0  0  0  0
   -2.8406    2.1634    2.6781 H   0  0  0  0  0  0  0  0  0  0  0  0
   -1.6358    0.4030    0.4480 H   0  0  0  0  0  0  0  0  0  0  0  0
   -0.6839    0.0759   -1.0030 H   0  0  0  0  0  0  0  0  0  0  0  0
   -2.8339    0.7786    3.3638 H   0  0  0  0  0  0  0  0  0  0  0  0
   -0.9165   -1.1930    0.2052 H   0  0  0  0  0  0  0  0  0  0  0  0
   -0.5416    1.0953    2.2193 H   0  0  0  0  0  0  0  0  0  0  0  0
  1  2  1  0
  1  8  1  0
  1  9  1  0
  1 11  1  0
  2  3  2  0
  2  4  1  0
  3  6  2  0
  4 12  1  0
  5  7  1  0
  5 10  1  0
M  END
