CC(=C=O)O.O_6
     RDKit          3D

 12 10  0  0  0  0  0  0  0  0999 V2000
   -0.2573    0.7225    1.3950 C   0  0  0  0  0  0  0  0  0  0  0  0
    0.6352   -0.2387    0.7094 C   0  0  0  0  0  0  0  0  0  0  0  0
    1.5744    0.2299   -0.1329 C   0  0  0  0  0  0  0  0  0  0  0  0
    0.5120   -1.5699    0.9378 O   0  0  0  0  0  0  0  0  0  0  0  0
   -3.1564    1.3784    1.6438 O   0  0  0  0  0  0  0  0  0  0  0  0
    2.3741    0.6843   -0.8577 O   0  0  0  0  0  0  0  0  0  0  0  0
   -3.6888    1.6584    2.4051 H   0  0  0  0  0  0  0  0  0  0  0  0
   -1.2862    0.3597    1.4010 H   0  0  0  0  0  0  0  0  0  0  0  0
    0.0594    0.8753    2.4275 H   0  0  0  0  0  0  0  0  0  0  0  0
   -3.7064    1.5464    0.8623 H   0  0  0  0  0  0  0  0  0  0  0  0
   -0.2494    1.6906    0.8910 H   0  0  0  0  0  0  0  0  0  0  0  0
   -0.2100   -1.7454    1.5800 H   0  0  0  0  0  0  0  0  0  0  0  0
  1  2  1  0
  1  8  1  0
  1  9  1  0
  1 11  1  0
  2  3  2  0
  2  4  1  0
  3  6  2  0
  4 12  1  0
  5  7  1  0
  5 10  1  0
M  END
