CC(=C=O)O.O_2
     RDKit          3D

 12 10  0  0  0  0  0  0  0  0999 V2000
   -0.4217   -0.9683   -0.1070 C   0  0  0  0  0  0  0  0  0  0  0  0
   -0.5792    0.1310    0.8728 C   0  0  0  0  0  0  0  0  0  0  0  0
   -0.4638    1.4092    0.4649 C   0  0  0  0  0  0  0  0  0  0  0  0
   -0.8403   -0.1355    2.1797 O   0  0  0  0  0  0  0  0  0  0  0  0
   -0.9516    2.7189    3.1411 O   0  0  0  0  0  0  0  0  0  0  0  0
   -0.3799    2.5467    0.1959 O   0  0  0  0  0  0  0  0  0  0  0  0
   -0.7659    3.0086    2.2286 H   0  0  0  0  0  0  0  0  0  0  0  0
    0.3996   -1.6264    0.1803 H   0  0  0  0  0  0  0  0  0  0  0  0
   -1.3348   -1.5621   -0.1704 H   0  0  0  0  0  0  0  0  0  0  0  0
   -0.9581    1.7457    3.0447 H   0  0  0  0  0  0  0  0  0  0  0  0
   -0.2059   -0.5740   -1.1020 H   0  0  0  0  0  0  0  0  0  0  0  0
   -0.8978   -1.1022    2.3338 H   0  0  0  0  0  0  0  0  0  0  0  0
  1  2  1  0
  1  8  1  0
  1  9  1  0
  1 11  1  0
  2  3  2  0
  2  4  1  0
  3  6  2  0
  4 12  1  0
  5  7  1  0
  5 10  1  0
M  END
