CC(=C=O)O.O
     RDKit          3D

 12 10  0  0  0  0  0  0  0  0999 V2000
   -0.9839   -0.4063    0.2479 C   0  0  0  0  0  0  0  0  0  0  0  0
    0.2293    0.0178    1.0165 C   0  0  0  0  0  0  0  0  0  0  0  0
    0.8353    1.1396    0.7366 C   0  0  0  0  0  0  0  0  0  0  0  0
    0.7214   -0.7831    2.0422 O   0  0  0  0  0  0  0  0  0  0  0  0
   -1.9989    2.5740    2.2824 O   0  0  0  0  0  0  0  0  0  0  0  0
    1.4090    2.2035    0.4715 O   0  0  0  0  0  0  0  0  0  0  0  0
   -2.1244    2.3869    1.3181 H   0  0  0  0  0  0  0  0  0  0  0  0
   -0.7862   -1.3821   -0.2427 H   0  0  0  0  0  0  0  0  0  0  0  0
   -1.8400   -0.5198    0.9451 H   0  0  0  0  0  0  0  0  0  0  0  0
   -1.8756    1.6820    2.6944 H   0  0  0  0  0  0  0  0  0  0  0  0
   -1.2567    0.3371   -0.5329 H   0  0  0  0  0  0  0  0  0  0  0  0
    0.2713   -1.6581    2.2833 H   0  0  0  0  0  0  0  0  0  0  0  0
  1  2  1  0
  1  8  1  0
  1  9  1  0
  1 11  1  0
  2  3  2  0
  2  4  1  0
  3  6  2  0
  4 12  1  0
  5  7  1  0
  5 10  1  0
M  END
