O1CCOOC1
     RDKit          3D

 12 12  0  0  0  0  0  0  0  0999 V2000
   -0.8701    0.5135    0.2154 C   0  0  0  0  0  0  0  0  0  0  0  0
    1.4623   -0.7468    0.6744 C   0  0  0  0  0  0  0  0  0  0  0  0
    1.0693    0.5012    1.4739 C   0  0  0  0  0  0  0  0  0  0  0  0
   -0.3209   -0.5088   -0.5906 O   0  0  0  0  0  0  0  0  0  0  0  0
    0.2795   -1.3676    0.2282 O   0  0  0  0  0  0  0  0  0  0  0  0
    0.1702    1.3148    0.7430 O   0  0  0  0  0  0  0  0  0  0  0  0
    1.9827    1.0892    1.7033 H   0  0  0  0  0  0  0  0  0  0  0  0
   -1.5067    0.0928    1.0291 H   0  0  0  0  0  0  0  0  0  0  0  0
   -1.5196    1.1516   -0.4183 H   0  0  0  0  0  0  0  0  0  0  0  0
    0.6057    0.2025    2.4407 H   0  0  0  0  0  0  0  0  0  0  0  0
    2.0230   -1.4486    1.3268 H   0  0  0  0  0  0  0  0  0  0  0  0
    2.1083   -0.4709   -0.1894 H   0  0  0  0  0  0  0  0  0  0  0  0
  1  4  1  0
  1  6  1  0
  1  8  1  0
  1  9  1  0
  2  3  1  0
  2  5  1  0
  2 11  1  0
  2 12  1  0
  3  6  1  0
  3  7  1  0
  3 10  1  0
  4  5  1  0
M  END
