COC(=O)C=O.[H][H]_5
     RDKit          3D

 12 10  0  0  0  0  0  0  0  0999 V2000
   -0.0561   -0.7665    1.0107 C   0  0  0  0  0  0  0  0  0  0  0  0
    0.3893    1.3360    1.6793 C   0  0  0  0  0  0  0  0  0  0  0  0
    0.6589    2.3652    2.7045 C   0  0  0  0  0  0  0  0  0  0  0  0
    0.1884    0.0600    2.1032 O   0  0  0  0  0  0  0  0  0  0  0  0
    0.3581    1.6618    0.5118 O   0  0  0  0  0  0  0  0  0  0  0  0
    0.7047    2.1400    3.8792 O   0  0  0  0  0  0  0  0  0  0  0  0
   -0.9705   -0.4240    0.5153 H   0  0  0  0  0  0  0  0  0  0  0  0
    0.7927   -0.6925    0.3224 H   0  0  0  0  0  0  0  0  0  0  0  0
   -0.1735   -1.7925    1.3720 H   0  0  0  0  0  0  0  0  0  0  0  0
    0.8255    3.3874    2.3890 H   0  0  0  0  0  0  0  0  0  0  0  0
   -1.8620    1.3291   -1.3849 H   0  0  0  0  0  0  0  0  0  0  0  0
   -1.3764    1.9206   -1.2517 H   0  0  0  0  0  0  0  0  0  0  0  0
  1  4  1  0
  1  7  1  0
  1  8  1  0
  1  9  1  0
  2  3  1  0
  2  4  1  0
  2  5  2  0
  3  6  2  0
  3 10  1  0
 11 12  1  0
M  END
