COC(=O)C=O.[H][H]_13
     RDKit          3D

 12 10  0  0  0  0  0  0  0  0999 V2000
   -0.0600    0.0309    0.6615 C   0  0  0  0  0  0  0  0  0  0  0  0
    0.0243    1.5445    2.3241 C   0  0  0  0  0  0  0  0  0  0  0  0
    0.7256    2.3219    3.3667 C   0  0  0  0  0  0  0  0  0  0  0  0
    0.7591    0.6692    1.5876 O   0  0  0  0  0  0  0  0  0  0  0  0
   -1.1658    1.7128    2.1640 O   0  0  0  0  0  0  0  0  0  0  0  0
    1.8958    2.2228    3.5979 O   0  0  0  0  0  0  0  0  0  0  0  0
   -0.8396   -0.5132    1.2050 H   0  0  0  0  0  0  0  0  0  0  0  0
   -0.5147    0.7925    0.0191 H   0  0  0  0  0  0  0  0  0  0  0  0
    0.5537   -0.6573    0.0726 H   0  0  0  0  0  0  0  0  0  0  0  0
    0.1602    3.0262    3.9637 H   0  0  0  0  0  0  0  0  0  0  0  0
   -1.0347   -0.6660   -2.3941 H   0  0  0  0  0  0  0  0  0  0  0  0
   -1.0246    0.0404   -2.7172 H   0  0  0  0  0  0  0  0  0  0  0  0
  1  4  1  0
  1  7  1  0
  1  8  1  0
  1  9  1  0
  2  3  1  0
  2  4  1  0
  2  5  2  0
  3  6  2  0
  3 10  1  0
 11 12  1  0
M  END
