COC(=O)C=O.[H][H]_0
     RDKit          3D

 12 10  0  0  0  0  0  0  0  0999 V2000
   -0.3280   -0.8551    0.9723 C   0  0  0  0  0  0  0  0  0  0  0  0
   -0.2220    1.1882    1.9087 C   0  0  0  0  0  0  0  0  0  0  0  0
    0.4222    2.4951    2.1538 C   0  0  0  0  0  0  0  0  0  0  0  0
    0.4236    0.3092    1.0970 O   0  0  0  0  0  0  0  0  0  0  0  0
   -1.2894    0.9496    2.4321 O   0  0  0  0  0  0  0  0  0  0  0  0
    1.4650    2.8250    1.6677 O   0  0  0  0  0  0  0  0  0  0  0  0
   -0.4626   -1.2893    1.9687 H   0  0  0  0  0  0  0  0  0  0  0  0
   -1.3013   -0.5945    0.5433 H   0  0  0  0  0  0  0  0  0  0  0  0
    0.2108   -1.5468    0.3179 H   0  0  0  0  0  0  0  0  0  0  0  0
   -0.0681    3.2066    2.8062 H   0  0  0  0  0  0  0  0  0  0  0  0
    0.6682    2.0152   -0.8802 H   0  0  0  0  0  0  0  0  0  0  0  0
   -0.0393    1.8218   -1.1367 H   0  0  0  0  0  0  0  0  0  0  0  0
  1  4  1  0
  1  7  1  0
  1  8  1  0
  1  9  1  0
  2  3  1  0
  2  4  1  0
  2  5  2  0
  3  6  2  0
  3 10  1  0
 11 12  1  0
M  END
