COC(=O)C=O.[H][H]_17
     RDKit          3D

 12 10  0  0  0  0  0  0  0  0999 V2000
   -0.1342   -0.6399    1.0042 C   0  0  0  0  0  0  0  0  0  0  0  0
    0.2232    1.4349    1.7898 C   0  0  0  0  0  0  0  0  0  0  0  0
    0.6656    2.3704    2.8441 C   0  0  0  0  0  0  0  0  0  0  0  0
    0.3155    0.1092    2.0861 O   0  0  0  0  0  0  0  0  0  0  0  0
   -0.1941    1.8479    0.7301 O   0  0  0  0  0  0  0  0  0  0  0  0
    0.6439    3.5617    2.7326 O   0  0  0  0  0  0  0  0  0  0  0  0
   -1.1754   -0.3663    0.8021 H   0  0  0  0  0  0  0  0  0  0  0  0
    0.4882   -0.4015    0.1350 H   0  0  0  0  0  0  0  0  0  0  0  0
   -0.0557   -1.7016    1.2561 H   0  0  0  0  0  0  0  0  0  0  0  0
    1.0343    1.9710    3.7801 H   0  0  0  0  0  0  0  0  0  0  0  0
   -1.1140    1.5381   -1.5438 H   0  0  0  0  0  0  0  0  0  0  0  0
   -1.2181    0.8009   -1.7656 H   0  0  0  0  0  0  0  0  0  0  0  0
  1  4  1  0
  1  7  1  0
  1  8  1  0
  1  9  1  0
  2  3  1  0
  2  4  1  0
  2  5  2  0
  3  6  2  0
  3 10  1  0
 11 12  1  0
M  END
