COC(=O)C=O.[H][H]_2
     RDKit          3D

 12 10  0  0  0  0  0  0  0  0999 V2000
    0.0126   -0.6294    0.9013 C   0  0  0  0  0  0  0  0  0  0  0  0
    0.2555    1.4224    1.7941 C   0  0  0  0  0  0  0  0  0  0  0  0
    0.7302    2.3624    2.8306 C   0  0  0  0  0  0  0  0  0  0  0  0
    0.5313    0.1021    1.9653 O   0  0  0  0  0  0  0  0  0  0  0  0
   -0.3548    1.8564    0.8406 O   0  0  0  0  0  0  0  0  0  0  0  0
    1.3393    2.0279    3.8051 O   0  0  0  0  0  0  0  0  0  0  0  0
   -1.0709   -0.4738    0.8692 H   0  0  0  0  0  0  0  0  0  0  0  0
    0.4707   -0.2664   -0.0249 H   0  0  0  0  0  0  0  0  0  0  0  0
    0.2471   -1.6861    1.0605 H   0  0  0  0  0  0  0  0  0  0  0  0
    0.5218    3.4184    2.7144 H   0  0  0  0  0  0  0  0  0  0  0  0
   -1.6292    0.8335   -1.5911 H   0  0  0  0  0  0  0  0  0  0  0  0
   -1.5745    1.5573   -1.3143 H   0  0  0  0  0  0  0  0  0  0  0  0
  1  4  1  0
  1  7  1  0
  1  8  1  0
  1  9  1  0
  2  3  1  0
  2  4  1  0
  2  5  2  0
  3  6  2  0
  3 10  1  0
 11 12  1  0
M  END
