COC(=O)C=O.[H][H]_3
     RDKit          3D

 12 10  0  0  0  0  0  0  0  0999 V2000
   -0.2273   -0.7416    1.1112 C   0  0  0  0  0  0  0  0  0  0  0  0
    0.0726    1.3762    1.8119 C   0  0  0  0  0  0  0  0  0  0  0  0
    0.6499    2.4007    2.7064 C   0  0  0  0  0  0  0  0  0  0  0  0
    0.3967    0.0770    2.0476 O   0  0  0  0  0  0  0  0  0  0  0  0
   -0.6608    1.7261    0.9120 O   0  0  0  0  0  0  0  0  0  0  0  0
    1.3847    2.1519    3.6179 O   0  0  0  0  0  0  0  0  0  0  0  0
    0.0151   -1.7827    1.3451 H   0  0  0  0  0  0  0  0  0  0  0  0
   -1.3080   -0.5730    1.1678 H   0  0  0  0  0  0  0  0  0  0  0  0
    0.1417   -0.4730    0.1160 H   0  0  0  0  0  0  0  0  0  0  0  0
    0.4027    3.4413    2.5387 H   0  0  0  0  0  0  0  0  0  0  0  0
   -0.6242    1.1346   -1.9604 H   0  0  0  0  0  0  0  0  0  0  0  0
   -0.7640    1.7875   -1.5633 H   0  0  0  0  0  0  0  0  0  0  0  0
  1  4  1  0
  1  7  1  0
  1  8  1  0
  1  9  1  0
  2  3  1  0
  2  4  1  0
  2  5  2  0
  3  6  2  0
  3 10  1  0
 11 12  1  0
M  END
