COC(=O)C=O.[H][H]_11
     RDKit          3D

 12 10  0  0  0  0  0  0  0  0999 V2000
   -0.1280   -0.1482    0.7908 C   0  0  0  0  0  0  0  0  0  0  0  0
    0.2350    1.6469    2.0976 C   0  0  0  0  0  0  0  0  0  0  0  0
    0.6377    2.3005    3.3600 C   0  0  0  0  0  0  0  0  0  0  0  0
    0.2825    0.2892    2.0463 O   0  0  0  0  0  0  0  0  0  0  0  0
   -0.1191    2.3355    1.1644 O   0  0  0  0  0  0  0  0  0  0  0  0
    1.0011    1.7048    4.3325 O   0  0  0  0  0  0  0  0  0  0  0  0
   -0.0821   -1.2413    0.7722 H   0  0  0  0  0  0  0  0  0  0  0  0
   -1.1525    0.1996    0.6209 H   0  0  0  0  0  0  0  0  0  0  0  0
    0.5423    0.2807    0.0386 H   0  0  0  0  0  0  0  0  0  0  0  0
    0.6073    3.3809    3.4231 H   0  0  0  0  0  0  0  0  0  0  0  0
   -1.0949   -0.4239   -2.1798 H   0  0  0  0  0  0  0  0  0  0  0  0
   -1.2501    0.2002   -2.6157 H   0  0  0  0  0  0  0  0  0  0  0  0
  1  4  1  0
  1  7  1  0
  1  8  1  0
  1  9  1  0
  2  3  1  0
  2  4  1  0
  2  5  2  0
  3  6  2  0
  3 10  1  0
 11 12  1  0
M  END
