COC(=O)C=O.[H][H]_16
     RDKit          3D

 12 10  0  0  0  0  0  0  0  0999 V2000
   -0.5766   -0.9975    1.3628 C   0  0  0  0  0  0  0  0  0  0  0  0
    0.3678    1.0374    1.4787 C   0  0  0  0  0  0  0  0  0  0  0  0
    0.4848    2.3885    2.0646 C   0  0  0  0  0  0  0  0  0  0  0  0
   -0.5836    0.2280    2.0200 O   0  0  0  0  0  0  0  0  0  0  0  0
    1.0885    0.6925    0.5679 O   0  0  0  0  0  0  0  0  0  0  0  0
    1.2602    3.2167    1.6839 O   0  0  0  0  0  0  0  0  0  0  0  0
   -1.3428   -1.6388    1.8086 H   0  0  0  0  0  0  0  0  0  0  0  0
   -0.7869   -0.8226    0.3021 H   0  0  0  0  0  0  0  0  0  0  0  0
    0.4167   -1.4453    1.4752 H   0  0  0  0  0  0  0  0  0  0  0  0
   -0.1651    2.6637    2.8851 H   0  0  0  0  0  0  0  0  0  0  0  0
   -0.7218    2.5270   -0.8661 H   0  0  0  0  0  0  0  0  0  0  0  0
    0.0380    2.6753   -0.9319 H   0  0  0  0  0  0  0  0  0  0  0  0
  1  4  1  0
  1  7  1  0
  1  8  1  0
  1  9  1  0
  2  3  1  0
  2  4  1  0
  2  5  2  0
  3  6  2  0
  3 10  1  0
 11 12  1  0
M  END
