COC(=O)C=O.[H][H]_14
     RDKit          3D

 12 10  0  0  0  0  0  0  0  0999 V2000
   -0.1120    0.0001    0.6876 C   0  0  0  0  0  0  0  0  0  0  0  0
   -0.0089    1.5079    2.3545 C   0  0  0  0  0  0  0  0  0  0  0  0
    0.7145    2.3457    3.3332 C   0  0  0  0  0  0  0  0  0  0  0  0
    0.7299    0.7125    1.5360 O   0  0  0  0  0  0  0  0  0  0  0  0
   -1.2198    1.5587    2.3164 O   0  0  0  0  0  0  0  0  0  0  0  0
    1.9062    2.3625    3.4441 O   0  0  0  0  0  0  0  0  0  0  0  0
   -0.7757   -0.6205    1.2988 H   0  0  0  0  0  0  0  0  0  0  0  0
   -0.7016    0.7154    0.1044 H   0  0  0  0  0  0  0  0  0  0  0  0
    0.5036   -0.6219    0.0309 H   0  0  0  0  0  0  0  0  0  0  0  0
    0.1459    2.9866    3.9951 H   0  0  0  0  0  0  0  0  0  0  0  0
   -0.9880   -0.5474   -2.4867 H   0  0  0  0  0  0  0  0  0  0  0  0
   -0.7150    0.1252   -2.7634 H   0  0  0  0  0  0  0  0  0  0  0  0
  1  4  1  0
  1  7  1  0
  1  8  1  0
  1  9  1  0
  2  3  1  0
  2  4  1  0
  2  5  2  0
  3  6  2  0
  3 10  1  0
 11 12  1  0
M  END
