COC(=O)C=O.[H][H]_18
     RDKit          3D

 12 10  0  0  0  0  0  0  0  0999 V2000
    0.0232   -0.7094    1.1791 C   0  0  0  0  0  0  0  0  0  0  0  0
   -0.8413    1.4149    1.6523 C   0  0  0  0  0  0  0  0  0  0  0  0
    0.5071    1.8203    2.1079 C   0  0  0  0  0  0  0  0  0  0  0  0
   -1.0854    0.1469    1.1873 O   0  0  0  0  0  0  0  0  0  0  0  0
   -1.7072    2.2647    1.7132 O   0  0  0  0  0  0  0  0  0  0  0  0
    1.4648    1.1028    2.1156 O   0  0  0  0  0  0  0  0  0  0  0  0
    0.3982   -0.8126    2.2022 H   0  0  0  0  0  0  0  0  0  0  0  0
   -0.2960   -1.6797    0.7897 H   0  0  0  0  0  0  0  0  0  0  0  0
    0.7996   -0.2777    0.5399 H   0  0  0  0  0  0  0  0  0  0  0  0
    0.6508    2.8336    2.4608 H   0  0  0  0  0  0  0  0  0  0  0  0
    0.1452    2.0724   -1.0292 H   0  0  0  0  0  0  0  0  0  0  0  0
   -0.5800    2.3485   -1.0678 H   0  0  0  0  0  0  0  0  0  0  0  0
  1  4  1  0
  1  7  1  0
  1  8  1  0
  1  9  1  0
  2  3  1  0
  2  4  1  0
  2  5  2  0
  3  6  2  0
  3 10  1  0
 11 12  1  0
M  END
