COC(=O)C=O.[H][H]_15
     RDKit          3D

 12 10  0  0  0  0  0  0  0  0999 V2000
   -0.1798   -1.0046    1.1467 C   0  0  0  0  0  0  0  0  0  0  0  0
   -0.1255    1.1748    1.6887 C   0  0  0  0  0  0  0  0  0  0  0  0
    0.5878    2.3900    2.1321 C   0  0  0  0  0  0  0  0  0  0  0  0
    0.6245    0.0439    1.5797 O   0  0  0  0  0  0  0  0  0  0  0  0
   -1.3107    1.2081    1.4397 O   0  0  0  0  0  0  0  0  0  0  0  0
    0.0692    3.4615    2.2553 O   0  0  0  0  0  0  0  0  0  0  0  0
   -0.9840   -1.1486    1.8764 H   0  0  0  0  0  0  0  0  0  0  0  0
   -0.6054   -0.7354    0.1739 H   0  0  0  0  0  0  0  0  0  0  0  0
    0.4340   -1.9063    1.0641 H   0  0  0  0  0  0  0  0  0  0  0  0
    1.6440    2.3259    2.3597 H   0  0  0  0  0  0  0  0  0  0  0  0
   -0.6106    2.5932   -0.7880 H   0  0  0  0  0  0  0  0  0  0  0  0
   -0.0644    2.1224   -1.0772 H   0  0  0  0  0  0  0  0  0  0  0  0
  1  4  1  0
  1  7  1  0
  1  8  1  0
  1  9  1  0
  2  3  1  0
  2  4  1  0
  2  5  2  0
  3  6  2  0
  3 10  1  0
 11 12  1  0
M  END
