COC(=O)C=O.[H][H]_1
     RDKit          3D

 12 10  0  0  0  0  0  0  0  0999 V2000
   -0.4499   -0.7803    0.9557 C   0  0  0  0  0  0  0  0  0  0  0  0
   -0.1233    1.1455    2.0738 C   0  0  0  0  0  0  0  0  0  0  0  0
    0.3575    2.5378    2.1895 C   0  0  0  0  0  0  0  0  0  0  0  0
    0.0640    0.5109    0.8864 O   0  0  0  0  0  0  0  0  0  0  0  0
   -0.6604    0.6256    3.0285 O   0  0  0  0  0  0  0  0  0  0  0  0
    0.8910    3.1340    1.2993 O   0  0  0  0  0  0  0  0  0  0  0  0
   -0.2911   -1.2682   -0.0108 H   0  0  0  0  0  0  0  0  0  0  0  0
    0.0732   -1.3192    1.7528 H   0  0  0  0  0  0  0  0  0  0  0  0
   -1.5185   -0.7159    1.1864 H   0  0  0  0  0  0  0  0  0  0  0  0
    0.2248    3.0616    3.1277 H   0  0  0  0  0  0  0  0  0  0  0  0
    0.3246    1.5725   -1.6081 H   0  0  0  0  0  0  0  0  0  0  0  0
    0.5871    2.0205   -1.0303 H   0  0  0  0  0  0  0  0  0  0  0  0
  1  4  1  0
  1  7  1  0
  1  8  1  0
  1  9  1  0
  2  3  1  0
  2  4  1  0
  2  5  2  0
  3  6  2  0
  3 10  1  0
 11 12  1  0
M  END
