COC(=O)C=O.[H][H]_4
     RDKit          3D

 12 10  0  0  0  0  0  0  0  0999 V2000
   -0.3125   -0.7788    1.1465 C   0  0  0  0  0  0  0  0  0  0  0  0
    0.3801    1.2919    1.6929 C   0  0  0  0  0  0  0  0  0  0  0  0
    0.5944    2.4038    2.6419 C   0  0  0  0  0  0  0  0  0  0  0  0
   -0.1823    0.1512    2.1734 O   0  0  0  0  0  0  0  0  0  0  0  0
    0.7106    1.4340    0.5350 O   0  0  0  0  0  0  0  0  0  0  0  0
    0.3002    2.3567    3.8012 O   0  0  0  0  0  0  0  0  0  0  0  0
   -0.7271   -1.7009    1.5648 H   0  0  0  0  0  0  0  0  0  0  0  0
   -0.9824   -0.3637    0.3863 H   0  0  0  0  0  0  0  0  0  0  0  0
    0.6774   -0.9598    0.7144 H   0  0  0  0  0  0  0  0  0  0  0  0
    1.0430    3.3208    2.2812 H   0  0  0  0  0  0  0  0  0  0  0  0
   -1.3037    1.4444   -1.6300 H   0  0  0  0  0  0  0  0  0  0  0  0
   -0.7184    1.9251   -1.4566 H   0  0  0  0  0  0  0  0  0  0  0  0
  1  4  1  0
  1  7  1  0
  1  8  1  0
  1  9  1  0
  2  3  1  0
  2  4  1  0
  2  5  2  0
  3  6  2  0
  3 10  1  0
 11 12  1  0
M  END
