COC(=O)C=O.[H][H]_6
     RDKit          3D

 12 10  0  0  0  0  0  0  0  0999 V2000
   -0.3129   -1.1971    1.5474 C   0  0  0  0  0  0  0  0  0  0  0  0
    0.1433    1.0044    1.4580 C   0  0  0  0  0  0  0  0  0  0  0  0
    0.5566    2.2915    2.0545 C   0  0  0  0  0  0  0  0  0  0  0  0
    0.0930   -0.0819    2.2738 O   0  0  0  0  0  0  0  0  0  0  0  0
   -0.1324    0.9628    0.2780 O   0  0  0  0  0  0  0  0  0  0  0  0
    0.8482    2.4283    3.2073 O   0  0  0  0  0  0  0  0  0  0  0  0
   -0.3418   -2.0583    2.2218 H   0  0  0  0  0  0  0  0  0  0  0  0
   -1.3060   -0.9971    1.1314 H   0  0  0  0  0  0  0  0  0  0  0  0
    0.4050   -1.3633    0.7373 H   0  0  0  0  0  0  0  0  0  0  0  0
    0.6036    3.1706    1.4243 H   0  0  0  0  0  0  0  0  0  0  0  0
   -0.4928    3.5481   -1.1190 H   0  0  0  0  0  0  0  0  0  0  0  0
   -0.5847    2.8167   -1.3641 H   0  0  0  0  0  0  0  0  0  0  0  0
  1  4  1  0
  1  7  1  0
  1  8  1  0
  1  9  1  0
  2  3  1  0
  2  4  1  0
  2  5  2  0
  3  6  2  0
  3 10  1  0
 11 12  1  0
M  END
