OOC(=O)C=C.[H][H]
     RDKit          3D

 12 10  0  0  0  0  0  0  0  0999 V2000
   -0.0298    0.8061   -0.2657 C   0  0  0  0  0  0  0  0  0  0  0  0
    0.6477    1.7489    0.3853 C   0  0  0  0  0  0  0  0  0  0  0  0
    0.8896    1.6809    1.8338 C   0  0  0  0  0  0  0  0  0  0  0  0
    0.4130    0.6070    2.5850 O   0  0  0  0  0  0  0  0  0  0  0  0
    0.6266    0.5443    3.9058 O   0  0  0  0  0  0  0  0  0  0  0  0
    1.5339    2.6061    2.3964 O   0  0  0  0  0  0  0  0  0  0  0  0
    0.1912   -0.2993    4.1878 H   0  0  0  0  0  0  0  0  0  0  0  0
   -0.4347   -0.0569    0.2476 H   0  0  0  0  0  0  0  0  0  0  0  0
   -0.1866    0.8947   -1.3328 H   0  0  0  0  0  0  0  0  0  0  0  0
   -2.4386    1.2915    1.8754 H   0  0  0  0  0  0  0  0  0  0  0  0
   -2.3101    1.9849    1.8129 H   0  0  0  0  0  0  0  0  0  0  0  0
    1.0329    2.5952   -0.1703 H   0  0  0  0  0  0  0  0  0  0  0  0
  1  2  2  0
  1  8  1  0
  1  9  1  0
  2  3  1  0
  2 12  1  0
  3  4  1  0
  3  6  2  0
  4  5  1  0
  5  7  1  0
 10 11  1  0
M  END
