OOC(=O)C=C.[H][H]_8
     RDKit          3D

 12 10  0  0  0  0  0  0  0  0999 V2000
   -0.2009    0.5888    0.2044 C   0  0  0  0  0  0  0  0  0  0  0  0
   -0.0856    1.4164    1.2254 C   0  0  0  0  0  0  0  0  0  0  0  0
    0.7595    1.1197    2.3834 C   0  0  0  0  0  0  0  0  0  0  0  0
    1.4403   -0.0516    2.3824 O   0  0  0  0  0  0  0  0  0  0  0  0
    2.2161   -0.1600    3.6092 O   0  0  0  0  0  0  0  0  0  0  0  0
    0.8503    1.8889    3.3127 O   0  0  0  0  0  0  0  0  0  0  0  0
    2.0302    0.6584    4.1087 H   0  0  0  0  0  0  0  0  0  0  0  0
    0.3297   -0.3451    0.1875 H   0  0  0  0  0  0  0  0  0  0  0  0
   -0.8243    0.8240   -0.6363 H   0  0  0  0  0  0  0  0  0  0  0  0
   -3.2200    3.2020   -0.0074 H   0  0  0  0  0  0  0  0  0  0  0  0
   -2.7405    2.9104   -0.5446 H   0  0  0  0  0  0  0  0  0  0  0  0
   -0.6196    2.3516    1.2359 H   0  0  0  0  0  0  0  0  0  0  0  0
  1  2  2  0
  1  8  1  0
  1  9  1  0
  2  3  1  0
  2 12  1  0
  3  4  1  0
  3  6  2  0
  4  5  1  0
  5  7  1  0
 10 11  1  0
M  END
