OOC(=O)C=C.[H][H]_0
     RDKit          3D

 12 10  0  0  0  0  0  0  0  0999 V2000
    0.6303    1.6616   -0.5239 C   0  0  0  0  0  0  0  0  0  0  0  0
    0.1631    0.8237    0.3815 C   0  0  0  0  0  0  0  0  0  0  0  0
    0.4389    0.9907    1.8094 C   0  0  0  0  0  0  0  0  0  0  0  0
   -0.0956    0.0895    2.6686 O   0  0  0  0  0  0  0  0  0  0  0  0
    0.2614    0.4533    4.0300 O   0  0  0  0  0  0  0  0  0  0  0  0
    1.1223    1.9033    2.2133 O   0  0  0  0  0  0  0  0  0  0  0  0
    0.8755    1.2082    3.9463 H   0  0  0  0  0  0  0  0  0  0  0  0
    1.2354    2.5019   -0.2374 H   0  0  0  0  0  0  0  0  0  0  0  0
    0.4196    1.5297   -1.5676 H   0  0  0  0  0  0  0  0  0  0  0  0
   -2.2674    1.5081    2.6892 H   0  0  0  0  0  0  0  0  0  0  0  0
   -2.4030    1.7491    1.9631 H   0  0  0  0  0  0  0  0  0  0  0  0
   -0.4453   -0.0156    0.0886 H   0  0  0  0  0  0  0  0  0  0  0  0
  1  2  2  0
  1  8  1  0
  1  9  1  0
  2  3  1  0
  2 12  1  0
  3  4  1  0
  3  6  2  0
  4  5  1  0
  5  7  1  0
 10 11  1  0
M  END
