OOC(=O)C=C.[H][H]_9
     RDKit          3D

 12 10  0  0  0  0  0  0  0  0999 V2000
   -0.2943    0.5699    0.2842 C   0  0  0  0  0  0  0  0  0  0  0  0
   -0.2563    1.3184    1.3700 C   0  0  0  0  0  0  0  0  0  0  0  0
    0.6866    1.0686    2.4617 C   0  0  0  0  0  0  0  0  0  0  0  0
    1.5373    0.0222    2.3318 O   0  0  0  0  0  0  0  0  0  0  0  0
    2.3866   -0.0584    3.5110 O   0  0  0  0  0  0  0  0  0  0  0  0
    0.7105    1.7684    3.4482 O   0  0  0  0  0  0  0  0  0  0  0  0
    2.1046    0.6783    4.0867 H   0  0  0  0  0  0  0  0  0  0  0  0
    0.3752   -0.2612    0.1624 H   0  0  0  0  0  0  0  0  0  0  0  0
   -0.9929    0.7679   -0.5053 H   0  0  0  0  0  0  0  0  0  0  0  0
   -2.5040    3.3091   -0.9040 H   0  0  0  0  0  0  0  0  0  0  0  0
   -2.8876    3.0700   -0.2720 H   0  0  0  0  0  0  0  0  0  0  0  0
   -0.9306    2.1501    1.4863 H   0  0  0  0  0  0  0  0  0  0  0  0
  1  2  2  0
  1  8  1  0
  1  9  1  0
  2  3  1  0
  2 12  1  0
  3  4  1  0
  3  6  2  0
  4  5  1  0
  5  7  1  0
 10 11  1  0
M  END
