OOC(=O)C=C.[H][H]_10
     RDKit          3D

 12 10  0  0  0  0  0  0  0  0999 V2000
    1.2539    0.5053   -0.8371 C   0  0  0  0  0  0  0  0  0  0  0  0
    1.0152    1.5573   -0.0776 C   0  0  0  0  0  0  0  0  0  0  0  0
    0.2757    1.4628    1.1823 C   0  0  0  0  0  0  0  0  0  0  0  0
   -0.1706    0.2407    1.5603 O   0  0  0  0  0  0  0  0  0  0  0  0
   -0.8759    0.3559    2.8283 O   0  0  0  0  0  0  0  0  0  0  0  0
    0.0670    2.4381    1.8671 O   0  0  0  0  0  0  0  0  0  0  0  0
   -0.8307    1.3019    3.0663 H   0  0  0  0  0  0  0  0  0  0  0  0
    0.9087   -0.4713   -0.5528 H   0  0  0  0  0  0  0  0  0  0  0  0
    1.7979    0.5942   -1.7574 H   0  0  0  0  0  0  0  0  0  0  0  0
   -2.3234    1.6282    5.4744 H   0  0  0  0  0  0  0  0  0  0  0  0
   -2.5470    2.2565    5.0760 H   0  0  0  0  0  0  0  0  0  0  0  0
    1.3643    2.5338   -0.3687 H   0  0  0  0  0  0  0  0  0  0  0  0
  1  2  2  0
  1  8  1  0
  1  9  1  0
  2  3  1  0
  2 12  1  0
  3  4  1  0
  3  6  2  0
  4  5  1  0
  5  7  1  0
 10 11  1  0
M  END
