OOC(=O)C=C.[H][H]_2
     RDKit          3D

 12 10  0  0  0  0  0  0  0  0999 V2000
    0.0016    0.8730   -0.3875 C   0  0  0  0  0  0  0  0  0  0  0  0
    0.6574    1.6665    0.4378 C   0  0  0  0  0  0  0  0  0  0  0  0
    0.7183    1.4198    1.8795 C   0  0  0  0  0  0  0  0  0  0  0  0
    0.0808    0.3243    2.3581 O   0  0  0  0  0  0  0  0  0  0  0  0
    0.2245    0.2769    3.8057 O   0  0  0  0  0  0  0  0  0  0  0  0
    1.3157    2.1637    2.6234 O   0  0  0  0  0  0  0  0  0  0  0  0
    0.8251    1.0128    4.0321 H   0  0  0  0  0  0  0  0  0  0  0  0
   -0.5173    0.0054   -0.0244 H   0  0  0  0  0  0  0  0  0  0  0  0
   -0.0336    1.0714   -1.4410 H   0  0  0  0  0  0  0  0  0  0  0  0
   -2.1936    1.3704    2.4052 H   0  0  0  0  0  0  0  0  0  0  0  0
   -2.3175    1.6832    1.7049 H   0  0  0  0  0  0  0  0  0  0  0  0
    1.1736    2.5362    0.0673 H   0  0  0  0  0  0  0  0  0  0  0  0
  1  2  2  0
  1  8  1  0
  1  9  1  0
  2  3  1  0
  2 12  1  0
  3  4  1  0
  3  6  2  0
  4  5  1  0
  5  7  1  0
 10 11  1  0
M  END
