OOC(=O)C=C.[H][H]_7
     RDKit          3D

 12 10  0  0  0  0  0  0  0  0999 V2000
    1.2265    0.7306   -0.5968 C   0  0  0  0  0  0  0  0  0  0  0  0
    0.2593    1.2478    0.1366 C   0  0  0  0  0  0  0  0  0  0  0  0
    0.1541    1.0080    1.5769 C   0  0  0  0  0  0  0  0  0  0  0  0
    1.0939    0.2217    2.1547 O   0  0  0  0  0  0  0  0  0  0  0  0
    0.8186    0.1080    3.5794 O   0  0  0  0  0  0  0  0  0  0  0  0
   -0.7386    1.4921    2.2343 O   0  0  0  0  0  0  0  0  0  0  0  0
    0.0114    0.6361    3.7324 H   0  0  0  0  0  0  0  0  0  0  0  0
    1.9811    0.1064   -0.1554 H   0  0  0  0  0  0  0  0  0  0  0  0
    1.2872    0.9177   -1.6513 H   0  0  0  0  0  0  0  0  0  0  0  0
   -3.1063    3.2401    3.5600 H   0  0  0  0  0  0  0  0  0  0  0  0
   -2.5578    2.8218    3.2028 H   0  0  0  0  0  0  0  0  0  0  0  0
   -0.4942    1.8730   -0.3124 H   0  0  0  0  0  0  0  0  0  0  0  0
  1  2  2  0
  1  8  1  0
  1  9  1  0
  2  3  1  0
  2 12  1  0
  3  4  1  0
  3  6  2  0
  4  5  1  0
  5  7  1  0
 10 11  1  0
M  END
