OOC(=O)C=C.[H][H]_15
     RDKit          3D

 12 10  0  0  0  0  0  0  0  0999 V2000
    0.0547    0.5505    0.1584 C   0  0  0  0  0  0  0  0  0  0  0  0
    0.6739    1.5988    0.6639 C   0  0  0  0  0  0  0  0  0  0  0  0
    0.5258    2.0181    2.0648 C   0  0  0  0  0  0  0  0  0  0  0  0
    0.2176    1.0723    3.0009 O   0  0  0  0  0  0  0  0  0  0  0  0
    0.5280   -0.2838    2.5526 O   0  0  0  0  0  0  0  0  0  0  0  0
    0.6686    3.1957    2.3287 O   0  0  0  0  0  0  0  0  0  0  0  0
    1.1309   -0.6051    3.2397 H   0  0  0  0  0  0  0  0  0  0  0  0
   -0.5552   -0.0760    0.7833 H   0  0  0  0  0  0  0  0  0  0  0  0
    0.1606    0.2818   -0.8742 H   0  0  0  0  0  0  0  0  0  0  0  0
   -2.4297    2.0605    1.4020 H   0  0  0  0  0  0  0  0  0  0  0  0
   -2.3136    2.3580    2.1104 H   0  0  0  0  0  0  0  0  0  0  0  0
    1.2737    2.2326    0.0308 H   0  0  0  0  0  0  0  0  0  0  0  0
  1  2  2  0
  1  8  1  0
  1  9  1  0
  2  3  1  0
  2 12  1  0
  3  4  1  0
  3  6  2  0
  4  5  1  0
  5  7  1  0
 10 11  1  0
M  END
