OOC(=O)C=C.[H][H]_6
     RDKit          3D

 12 10  0  0  0  0  0  0  0  0999 V2000
    1.3346    0.7394   -0.6085 C   0  0  0  0  0  0  0  0  0  0  0  0
    0.3081    1.3079   -0.0053 C   0  0  0  0  0  0  0  0  0  0  0  0
   -0.0075    1.0624    1.4030 C   0  0  0  0  0  0  0  0  0  0  0  0
    0.7989    0.2189    2.0911 O   0  0  0  0  0  0  0  0  0  0  0  0
    0.3248    0.1085    3.4628 O   0  0  0  0  0  0  0  0  0  0  0  0
   -0.9544    1.5908    1.9394 O   0  0  0  0  0  0  0  0  0  0  0  0
   -0.4669    0.6781    3.5121 H   0  0  0  0  0  0  0  0  0  0  0  0
    1.9833    0.0666   -0.0791 H   0  0  0  0  0  0  0  0  0  0  0  0
    1.5500    0.9314   -1.6417 H   0  0  0  0  0  0  0  0  0  0  0  0
   -2.2952    2.7595    4.3403 H   0  0  0  0  0  0  0  0  0  0  0  0
   -2.3018    2.9587    3.5895 H   0  0  0  0  0  0  0  0  0  0  0  0
   -0.3388    1.9812   -0.5423 H   0  0  0  0  0  0  0  0  0  0  0  0
  1  2  2  0
  1  8  1  0
  1  9  1  0
  2  3  1  0
  2 12  1  0
  3  4  1  0
  3  6  2  0
  4  5  1  0
  5  7  1  0
 10 11  1  0
M  END
