OOC(=O)C=C.[H][H]_3
     RDKit          3D

 12 10  0  0  0  0  0  0  0  0999 V2000
    0.0713    1.0445   -0.0384 C   0  0  0  0  0  0  0  0  0  0  0  0
   -0.1575    1.2051    1.2507 C   0  0  0  0  0  0  0  0  0  0  0  0
    0.8524    0.8924    2.2633 C   0  0  0  0  0  0  0  0  0  0  0  0
    0.5282    1.0875    3.5644 O   0  0  0  0  0  0  0  0  0  0  0  0
    1.6555    0.7128    4.4023 O   0  0  0  0  0  0  0  0  0  0  0  0
    1.9433    0.4731    1.9516 O   0  0  0  0  0  0  0  0  0  0  0  0
    2.3595    0.4349    3.7851 H   0  0  0  0  0  0  0  0  0  0  0  0
    1.0175    0.6752   -0.3888 H   0  0  0  0  0  0  0  0  0  0  0  0
   -0.6770    1.2766   -0.7714 H   0  0  0  0  0  0  0  0  0  0  0  0
   -3.0655    2.7481   -0.3046 H   0  0  0  0  0  0  0  0  0  0  0  0
   -3.4844    2.2778    0.1504 H   0  0  0  0  0  0  0  0  0  0  0  0
   -1.1080    1.5756    1.5965 H   0  0  0  0  0  0  0  0  0  0  0  0
  1  2  2  0
  1  8  1  0
  1  9  1  0
  2  3  1  0
  2 12  1  0
  3  4  1  0
  3  6  2  0
  4  5  1  0
  5  7  1  0
 10 11  1  0
M  END
