OOC(=O)C=C.[H][H]_1
     RDKit          3D

 12 10  0  0  0  0  0  0  0  0999 V2000
    0.4575    1.7202   -0.4858 C   0  0  0  0  0  0  0  0  0  0  0  0
    0.2521    0.7828    0.4192 C   0  0  0  0  0  0  0  0  0  0  0  0
    0.4807    1.0177    1.8459 C   0  0  0  0  0  0  0  0  0  0  0  0
    0.2210    0.0032    2.7058 O   0  0  0  0  0  0  0  0  0  0  0  0
    0.4782    0.4482    4.0656 O   0  0  0  0  0  0  0  0  0  0  0  0
    0.8879    2.0833    2.2483 O   0  0  0  0  0  0  0  0  0  0  0  0
    0.8514    1.3469    3.9805 H   0  0  0  0  0  0  0  0  0  0  0  0
    0.8039    2.6962   -0.1999 H   0  0  0  0  0  0  0  0  0  0  0  0
    0.2843    1.5366   -1.5286 H   0  0  0  0  0  0  0  0  0  0  0  0
   -2.4097    1.5368    1.7632 H   0  0  0  0  0  0  0  0  0  0  0  0
   -2.2740    1.4247    2.5200 H   0  0  0  0  0  0  0  0  0  0  0  0
   -0.0982   -0.1931    0.1270 H   0  0  0  0  0  0  0  0  0  0  0  0
  1  2  2  0
  1  8  1  0
  1  9  1  0
  2  3  1  0
  2 12  1  0
  3  4  1  0
  3  6  2  0
  4  5  1  0
  5  7  1  0
 10 11  1  0
M  END
