OOC(=O)C=C.[H][H]_14
     RDKit          3D

 12 10  0  0  0  0  0  0  0  0999 V2000
    0.1036    1.1214   -0.3045 C   0  0  0  0  0  0  0  0  0  0  0  0
    0.4992    1.2798    0.9439 C   0  0  0  0  0  0  0  0  0  0  0  0
   -0.0169    0.4582    2.0421 C   0  0  0  0  0  0  0  0  0  0  0  0
    0.4747    0.7131    3.2857 O   0  0  0  0  0  0  0  0  0  0  0  0
    1.5467    1.7148    3.2438 O   0  0  0  0  0  0  0  0  0  0  0  0
   -0.8476   -0.3928    1.7986 O   0  0  0  0  0  0  0  0  0  0  0  0
    2.1507    1.4243    3.9439 H   0  0  0  0  0  0  0  0  0  0  0  0
   -0.6203    0.3697   -0.5596 H   0  0  0  0  0  0  0  0  0  0  0  0
    0.4885    1.7374   -1.0936 H   0  0  0  0  0  0  0  0  0  0  0  0
   -2.4305    2.2347    1.2143 H   0  0  0  0  0  0  0  0  0  0  0  0
   -2.6314    1.7038    1.7447 H   0  0  0  0  0  0  0  0  0  0  0  0
    1.2184    2.0389    1.2018 H   0  0  0  0  0  0  0  0  0  0  0  0
  1  2  2  0
  1  8  1  0
  1  9  1  0
  2  3  1  0
  2 12  1  0
  3  4  1  0
  3  6  2  0
  4  5  1  0
  5  7  1  0
 10 11  1  0
M  END
