OOC(=O)C=C.[H][H]_13
     RDKit          3D

 12 10  0  0  0  0  0  0  0  0999 V2000
    0.0931    1.2854   -0.3376 C   0  0  0  0  0  0  0  0  0  0  0  0
    0.5688    1.3263    0.8921 C   0  0  0  0  0  0  0  0  0  0  0  0
    0.1935    0.3443    1.9130 C   0  0  0  0  0  0  0  0  0  0  0  0
    0.7395    0.5025    3.1500 O   0  0  0  0  0  0  0  0  0  0  0  0
    1.5221    1.7410    3.2362 O   0  0  0  0  0  0  0  0  0  0  0  0
   -0.5708   -0.5503    1.6144 O   0  0  0  0  0  0  0  0  0  0  0  0
    1.3673    2.0397    4.1451 H   0  0  0  0  0  0  0  0  0  0  0  0
   -0.5976    0.5176   -0.6336 H   0  0  0  0  0  0  0  0  0  0  0  0
    0.3823    2.0119   -1.0716 H   0  0  0  0  0  0  0  0  0  0  0  0
   -2.4378    1.8848    1.5080 H   0  0  0  0  0  0  0  0  0  0  0  0
   -2.5908    1.2079    1.8572 H   0  0  0  0  0  0  0  0  0  0  0  0
    1.2656    2.0922    1.1880 H   0  0  0  0  0  0  0  0  0  0  0  0
  1  2  2  0
  1  8  1  0
  1  9  1  0
  2  3  1  0
  2 12  1  0
  3  4  1  0
  3  6  2  0
  4  5  1  0
  5  7  1  0
 10 11  1  0
M  END
