COC=C=O.O
     RDKit          3D

 12 10  0  0  0  0  0  0  0  0999 V2000
   -1.7097   -0.3179    1.1941 C   0  0  0  0  0  0  0  0  0  0  0  0
    0.6240    0.2555    1.6901 C   0  0  0  0  0  0  0  0  0  0  0  0
   -2.6163   -0.6782    0.3311 C   0  0  0  0  0  0  0  0  0  0  0  0
   -0.3903   -0.1480    0.7812 O   0  0  0  0  0  0  0  0  0  0  0  0
   -1.2342    3.1190    0.2357 O   0  0  0  0  0  0  0  0  0  0  0  0
   -3.4775   -1.0201   -0.4890 O   0  0  0  0  0  0  0  0  0  0  0  0
   -1.4057    2.4217   -0.4461 H   0  0  0  0  0  0  0  0  0  0  0  0
   -1.7248    2.8080    1.0377 H   0  0  0  0  0  0  0  0  0  0  0  0
   -1.9923   -0.1506    2.2261 H   0  0  0  0  0  0  0  0  0  0  0  0
    0.7231   -0.4926    2.5051 H   0  0  0  0  0  0  0  0  0  0  0  0
    1.5898    0.3306    1.1496 H   0  0  0  0  0  0  0  0  0  0  0  0
    0.3742    1.2478    2.1221 H   0  0  0  0  0  0  0  0  0  0  0  0
  1  3  2  0
  1  4  1  0
  1  9  1  0
  2  4  1  0
  2 10  1  0
  2 11  1  0
  2 12  1  0
  3  6  2  0
  5  7  1  0
  5  8  1  0
M  END
