COC=C=O.O_8
     RDKit          3D

 12 10  0  0  0  0  0  0  0  0999 V2000
   -0.8934    0.0363    1.4578 C   0  0  0  0  0  0  0  0  0  0  0  0
    1.0796   -0.7709    2.3190 C   0  0  0  0  0  0  0  0  0  0  0  0
   -1.7057    0.8269    0.7471 C   0  0  0  0  0  0  0  0  0  0  0  0
    0.4538    0.1866    1.5011 O   0  0  0  0  0  0  0  0  0  0  0  0
   -3.5646    3.4124   -1.3628 O   0  0  0  0  0  0  0  0  0  0  0  0
   -2.4181    1.5168    0.1268 O   0  0  0  0  0  0  0  0  0  0  0  0
   -3.9536    2.5867   -1.0235 H   0  0  0  0  0  0  0  0  0  0  0  0
   -2.6504    3.3749   -1.0299 H   0  0  0  0  0  0  0  0  0  0  0  0
   -1.3319   -0.7682    2.0307 H   0  0  0  0  0  0  0  0  0  0  0  0
    0.8773   -1.7722    1.9301 H   0  0  0  0  0  0  0  0  0  0  0  0
    2.1558   -0.5812    2.2977 H   0  0  0  0  0  0  0  0  0  0  0  0
    0.7115   -0.6730    3.3435 H   0  0  0  0  0  0  0  0  0  0  0  0
  1  3  2  0
  1  4  1  0
  1  9  1  0
  2  4  1  0
  2 10  1  0
  2 11  1  0
  2 12  1  0
  3  6  2  0
  5  7  1  0
  5  8  1  0
M  END
