COC=C=O.O_3
     RDKit          3D

 12 10  0  0  0  0  0  0  0  0999 V2000
   -1.8966   -0.8308    1.0471 C   0  0  0  0  0  0  0  0  0  0  0  0
   -0.0227    0.4273    1.4535 C   0  0  0  0  0  0  0  0  0  0  0  0
   -2.6327   -1.8769    0.6552 C   0  0  0  0  0  0  0  0  0  0  0  0
   -0.5426   -0.7893    0.9819 O   0  0  0  0  0  0  0  0  0  0  0  0
   -0.2628    3.2900    0.6940 O   0  0  0  0  0  0  0  0  0  0  0  0
   -3.2871   -2.7852    0.3143 O   0  0  0  0  0  0  0  0  0  0  0  0
   -0.3195    4.0752    1.2608 H   0  0  0  0  0  0  0  0  0  0  0  0
   -0.2166    3.6254   -0.2153 H   0  0  0  0  0  0  0  0  0  0  0  0
   -2.4088    0.0358    1.4396 H   0  0  0  0  0  0  0  0  0  0  0  0
    1.0641    0.4023    1.3453 H   0  0  0  0  0  0  0  0  0  0  0  0
   -0.4304    1.2452    0.8547 H   0  0  0  0  0  0  0  0  0  0  0  0
   -0.2841    0.5560    2.5066 H   0  0  0  0  0  0  0  0  0  0  0  0
  1  3  2  0
  1  4  1  0
  1  9  1  0
  2  4  1  0
  2 10  1  0
  2 11  1  0
  2 12  1  0
  3  6  2  0
  5  7  1  0
  5  8  1  0
M  END
