COC=C=O.O_1
     RDKit          3D

 12 10  0  0  0  0  0  0  0  0999 V2000
   -1.3868   -0.2612    1.0746 C   0  0  0  0  0  0  0  0  0  0  0  0
    0.6612    0.1970    2.0196 C   0  0  0  0  0  0  0  0  0  0  0  0
   -2.5118   -0.0137    0.3927 C   0  0  0  0  0  0  0  0  0  0  0  0
   -0.4302    0.6823    1.2782 O   0  0  0  0  0  0  0  0  0  0  0  0
   -1.8637    2.8762   -0.2099 O   0  0  0  0  0  0  0  0  0  0  0  0
   -3.4528    0.3196   -0.2193 O   0  0  0  0  0  0  0  0  0  0  0  0
   -2.5985    2.2647   -0.4018 H   0  0  0  0  0  0  0  0  0  0  0  0
   -1.2551    2.3069    0.3029 H   0  0  0  0  0  0  0  0  0  0  0  0
   -1.2289   -1.2496    1.4814 H   0  0  0  0  0  0  0  0  0  0  0  0
    1.3784    1.0135    2.1377 H   0  0  0  0  0  0  0  0  0  0  0  0
    0.3167   -0.1324    3.0032 H   0  0  0  0  0  0  0  0  0  0  0  0
    1.1319   -0.6280    1.4785 H   0  0  0  0  0  0  0  0  0  0  0  0
  1  3  2  0
  1  4  1  0
  1  9  1  0
  2  4  1  0
  2 10  1  0
  2 11  1  0
  2 12  1  0
  3  6  2  0
  5  7  1  0
  5  8  1  0
M  END
