C1OC=CO1.O_3
     RDKit          3D

 12 11  0  0  0  0  0  0  0  0999 V2000
   -1.3953    0.4201    2.4462 C   0  0  0  0  0  0  0  0  0  0  0  0
    0.0103   -1.0891    1.6044 C   0  0  0  0  0  0  0  0  0  0  0  0
   -0.2199   -0.1713    0.6485 C   0  0  0  0  0  0  0  0  0  0  0  0
   -0.6991   -0.7734    2.7584 O   0  0  0  0  0  0  0  0  0  0  0  0
   -1.4588    2.5219   -1.2308 O   0  0  0  0  0  0  0  0  0  0  0  0
   -1.0965    0.8047    1.1156 O   0  0  0  0  0  0  0  0  0  0  0  0
   -2.0156    3.2570   -0.9245 H   0  0  0  0  0  0  0  0  0  0  0  0
   -1.0775    1.2159    3.1350 H   0  0  0  0  0  0  0  0  0  0  0  0
   -2.4764    0.2438    2.5396 H   0  0  0  0  0  0  0  0  0  0  0  0
    0.2071   -0.1831   -0.3425 H   0  0  0  0  0  0  0  0  0  0  0  0
   -1.3331    1.9436   -0.4515 H   0  0  0  0  0  0  0  0  0  0  0  0
    0.6508   -1.9510    1.5021 H   0  0  0  0  0  0  0  0  0  0  0  0
  1  4  1  0
  1  6  1  0
  1  8  1  0
  1  9  1  0
  2  3  2  0
  2  4  1  0
  2 12  1  0
  3  6  1  0
  3 10  1  0
  5  7  1  0
  5 11  1  0
M  END
