C1OC=CO1.O_0
     RDKit          3D

 12 11  0  0  0  0  0  0  0  0999 V2000
   -0.9885    0.8676    2.4113 C   0  0  0  0  0  0  0  0  0  0  0  0
    0.0656    0.0514    0.6260 C   0  0  0  0  0  0  0  0  0  0  0  0
    0.3180   -0.7725    1.6588 C   0  0  0  0  0  0  0  0  0  0  0  0
   -0.7534    1.1010    1.0333 O   0  0  0  0  0  0  0  0  0  0  0  0
   -2.8514    1.2344   -1.0034 O   0  0  0  0  0  0  0  0  0  0  0  0
   -0.3167   -0.3145    2.8086 O   0  0  0  0  0  0  0  0  0  0  0  0
   -2.1494    1.1703   -0.3247 H   0  0  0  0  0  0  0  0  0  0  0  0
   -2.0679    0.7449    2.5814 H   0  0  0  0  0  0  0  0  0  0  0  0
   -0.6040    1.7166    2.9946 H   0  0  0  0  0  0  0  0  0  0  0  0
    0.9240   -1.6638    1.6141 H   0  0  0  0  0  0  0  0  0  0  0  0
   -2.9194    2.1790   -1.2213 H   0  0  0  0  0  0  0  0  0  0  0  0
    0.4392   -0.0754   -0.3781 H   0  0  0  0  0  0  0  0  0  0  0  0
  1  4  1  0
  1  6  1  0
  1  8  1  0
  1  9  1  0
  2  3  2  0
  2  4  1  0
  2 12  1  0
  3  6  1  0
  3 10  1  0
  5  7  1  0
  5 11  1  0
M  END
