C1OC=CO1.O_2
     RDKit          3D

 12 11  0  0  0  0  0  0  0  0999 V2000
   -1.4004    0.4205    2.4392 C   0  0  0  0  0  0  0  0  0  0  0  0
    0.0750   -1.0382    1.6287 C   0  0  0  0  0  0  0  0  0  0  0  0
   -0.2949   -0.2312    0.6183 C   0  0  0  0  0  0  0  0  0  0  0  0
   -0.5849   -0.6802    2.7996 O   0  0  0  0  0  0  0  0  0  0  0  0
   -1.3452    2.6084   -1.1626 O   0  0  0  0  0  0  0  0  0  0  0  0
   -1.2214    0.7081    1.0635 O   0  0  0  0  0  0  0  0  0  0  0  0
   -2.1240    3.1607   -0.9823 H   0  0  0  0  0  0  0  0  0  0  0  0
   -1.1093    1.2974    3.0351 H   0  0  0  0  0  0  0  0  0  0  0  0
   -2.4541    0.1666    2.6236 H   0  0  0  0  0  0  0  0  0  0  0  0
    0.0692   -0.2950   -0.3955 H   0  0  0  0  0  0  0  0  0  0  0  0
   -1.2955    1.9722   -0.4208 H   0  0  0  0  0  0  0  0  0  0  0  0
    0.7814   -1.8499    1.5538 H   0  0  0  0  0  0  0  0  0  0  0  0
  1  4  1  0
  1  6  1  0
  1  8  1  0
  1  9  1  0
  2  3  2  0
  2  4  1  0
  2 12  1  0
  3  6  1  0
  3 10  1  0
  5  7  1  0
  5 11  1  0
M  END
