O/C=C/C(=O)O.[H][H]_2
     RDKit          3D

 12 10  0  0  0  0  0  0  0  0999 V2000
    1.5921    0.1937    1.2932 C   0  0  0  0  0  0  0  0  0  0  0  0
    0.4297    0.8681    1.2093 C   0  0  0  0  0  0  0  0  0  0  0  0
   -0.4225    1.1181    2.3496 C   0  0  0  0  0  0  0  0  0  0  0  0
   -0.0224    0.6465    3.5563 O   0  0  0  0  0  0  0  0  0  0  0  0
    2.3826   -0.0343    0.2186 O   0  0  0  0  0  0  0  0  0  0  0  0
   -1.4655    1.7355    2.2156 O   0  0  0  0  0  0  0  0  0  0  0  0
    3.1884   -0.5393    0.4648 H   0  0  0  0  0  0  0  0  0  0  0  0
   -0.7046    0.8999    4.2066 H   0  0  0  0  0  0  0  0  0  0  0  0
    1.9097   -0.1824    2.2593 H   0  0  0  0  0  0  0  0  0  0  0  0
   -2.4928    1.7903   -0.6141 H   0  0  0  0  0  0  0  0  0  0  0  0
   -2.7541    1.9903    0.0897 H   0  0  0  0  0  0  0  0  0  0  0  0
    0.1205    1.2385    0.2490 H   0  0  0  0  0  0  0  0  0  0  0  0
  1  2  2  0
  1  5  1  0
  1  9  1  0
  2  3  1  0
  2 12  1  0
  3  4  1  0
  3  6  2  0
  4  8  1  0
  5  7  1  0
 10 11  1  0
M  END
