O/C=C/C(=O)O.[H][H]_5
     RDKit          3D

 12 10  0  0  0  0  0  0  0  0999 V2000
    0.7933    0.2053    1.3126 C   0  0  0  0  0  0  0  0  0  0  0  0
   -0.1022    1.1401    1.6830 C   0  0  0  0  0  0  0  0  0  0  0  0
   -0.2957    1.5491    3.0556 C   0  0  0  0  0  0  0  0  0  0  0  0
    0.4667    0.9571    4.0080 O   0  0  0  0  0  0  0  0  0  0  0  0
    0.9664   -0.1697    0.0239 O   0  0  0  0  0  0  0  0  0  0  0  0
   -1.1226    2.4014    3.3332 O   0  0  0  0  0  0  0  0  0  0  0  0
    1.6589   -0.8612   -0.0601 H   0  0  0  0  0  0  0  0  0  0  0  0
    0.2105    1.3450    4.8661 H   0  0  0  0  0  0  0  0  0  0  0  0
    1.4015   -0.2672    2.0759 H   0  0  0  0  0  0  0  0  0  0  0  0
   -1.1189    0.8044   -1.7690 H   0  0  0  0  0  0  0  0  0  0  0  0
   -0.3943    1.0153   -1.9539 H   0  0  0  0  0  0  0  0  0  0  0  0
   -0.7025    1.6052    0.9226 H   0  0  0  0  0  0  0  0  0  0  0  0
  1  2  2  0
  1  5  1  0
  1  9  1  0
  2  3  1  0
  2 12  1  0
  3  4  1  0
  3  6  2  0
  4  8  1  0
  5  7  1  0
 10 11  1  0
M  END
