O/C=C/C(=O)O.[H][H]_4
     RDKit          3D

 12 10  0  0  0  0  0  0  0  0999 V2000
    1.9060    0.1945    1.1057 C   0  0  0  0  0  0  0  0  0  0  0  0
    1.0228    1.2058    1.0040 C   0  0  0  0  0  0  0  0  0  0  0  0
   -0.3725    1.0749    1.3574 C   0  0  0  0  0  0  0  0  0  0  0  0
   -0.8013   -0.1282    1.8128 O   0  0  0  0  0  0  0  0  0  0  0  0
    3.2105    0.3287    0.7715 O   0  0  0  0  0  0  0  0  0  0  0  0
   -1.1276    2.0257    1.2439 O   0  0  0  0  0  0  0  0  0  0  0  0
    3.7055   -0.5086    0.9088 H   0  0  0  0  0  0  0  0  0  0  0  0
   -1.7548   -0.0439    2.0022 H   0  0  0  0  0  0  0  0  0  0  0  0
    1.5603   -0.7667    1.4696 H   0  0  0  0  0  0  0  0  0  0  0  0
   -3.6582    1.7974    2.7668 H   0  0  0  0  0  0  0  0  0  0  0  0
   -3.3008    2.3892    2.4127 H   0  0  0  0  0  0  0  0  0  0  0  0
    1.3711    2.1561    0.6427 H   0  0  0  0  0  0  0  0  0  0  0  0
  1  2  2  0
  1  5  1  0
  1  9  1  0
  2  3  1  0
  2 12  1  0
  3  4  1  0
  3  6  2  0
  4  8  1  0
  5  7  1  0
 10 11  1  0
M  END
