O/C=C/C(=O)O.[H][H]_0
     RDKit          3D

 12 10  0  0  0  0  0  0  0  0999 V2000
    1.0063    1.0294    0.4975 C   0  0  0  0  0  0  0  0  0  0  0  0
    0.8841    0.7595    1.8092 C   0  0  0  0  0  0  0  0  0  0  0  0
   -0.1535    1.3320    2.6347 C   0  0  0  0  0  0  0  0  0  0  0  0
   -1.0362    2.1779    2.0486 O   0  0  0  0  0  0  0  0  0  0  0  0
    1.9541    0.5196   -0.3155 O   0  0  0  0  0  0  0  0  0  0  0  0
   -0.2207    1.0530    3.8199 O   0  0  0  0  0  0  0  0  0  0  0  0
    2.5510   -0.0829    0.1784 H   0  0  0  0  0  0  0  0  0  0  0  0
   -1.6619    2.4695    2.7382 H   0  0  0  0  0  0  0  0  0  0  0  0
    0.3067    1.7050    0.0203 H   0  0  0  0  0  0  0  0  0  0  0  0
   -2.0063   -0.4025    0.9729 H   0  0  0  0  0  0  0  0  0  0  0  0
   -1.4482   -0.9234    0.8283 H   0  0  0  0  0  0  0  0  0  0  0  0
    1.5856    0.0878    2.2654 H   0  0  0  0  0  0  0  0  0  0  0  0
  1  2  2  0
  1  5  1  0
  1  9  1  0
  2  3  1  0
  2 12  1  0
  3  4  1  0
  3  6  2  0
  4  8  1  0
  5  7  1  0
 10 11  1  0
M  END
