O/C=C/C(=O)O.[H][H]_3
     RDKit          3D

 12 10  0  0  0  0  0  0  0  0999 V2000
    1.8308    0.2205    1.1563 C   0  0  0  0  0  0  0  0  0  0  0  0
    1.0169    1.2916    1.2137 C   0  0  0  0  0  0  0  0  0  0  0  0
   -0.2648    1.2753    1.8813 C   0  0  0  0  0  0  0  0  0  0  0  0
   -0.6569    0.1204    2.4738 O   0  0  0  0  0  0  0  0  0  0  0  0
    3.0294    0.2476    0.5285 O   0  0  0  0  0  0  0  0  0  0  0  0
   -0.9603    2.2768    1.9023 O   0  0  0  0  0  0  0  0  0  0  0  0
    3.4864   -0.6199    0.5869 H   0  0  0  0  0  0  0  0  0  0  0  0
   -1.5338    0.2810    2.8705 H   0  0  0  0  0  0  0  0  0  0  0  0
    1.5152   -0.7018    1.6313 H   0  0  0  0  0  0  0  0  0  0  0  0
   -3.6865    1.2230    1.3299 H   0  0  0  0  0  0  0  0  0  0  0  0
   -3.3504    1.9076    1.1825 H   0  0  0  0  0  0  0  0  0  0  0  0
    1.3350    2.2029    0.7410 H   0  0  0  0  0  0  0  0  0  0  0  0
  1  2  2  0
  1  5  1  0
  1  9  1  0
  2  3  1  0
  2 12  1  0
  3  4  1  0
  3  6  2  0
  4  8  1  0
  5  7  1  0
 10 11  1  0
M  END
