O/C=C/C(=O)O.[H][H]_6
     RDKit          3D

 12 10  0  0  0  0  0  0  0  0999 V2000
    1.2452    0.5918    0.8766 C   0  0  0  0  0  0  0  0  0  0  0  0
    1.2146    1.4597    1.9056 C   0  0  0  0  0  0  0  0  0  0  0  0
    0.0063    1.7885    2.6272 C   0  0  0  0  0  0  0  0  0  0  0  0
   -1.1473    1.1893    2.2416 O   0  0  0  0  0  0  0  0  0  0  0  0
    2.3833    0.2918    0.2086 O   0  0  0  0  0  0  0  0  0  0  0  0
    0.0389    2.5824    3.5522 O   0  0  0  0  0  0  0  0  0  0  0  0
    2.2188   -0.3581   -0.5094 H   0  0  0  0  0  0  0  0  0  0  0  0
   -1.8543    1.5202    2.8273 H   0  0  0  0  0  0  0  0  0  0  0  0
    0.3224    0.1127    0.5692 H   0  0  0  0  0  0  0  0  0  0  0  0
   -2.2503   -1.0332    0.3852 H   0  0  0  0  0  0  0  0  0  0  0  0
   -2.5491   -0.3514    0.6080 H   0  0  0  0  0  0  0  0  0  0  0  0
    2.1326    1.9312    2.2057 H   0  0  0  0  0  0  0  0  0  0  0  0
  1  2  2  0
  1  5  1  0
  1  9  1  0
  2  3  1  0
  2 12  1  0
  3  4  1  0
  3  6  2  0
  4  8  1  0
  5  7  1  0
 10 11  1  0
M  END
