C=COOC=O.[H][H]_18
     RDKit          3D

 12 10  0  0  0  0  0  0  0  0999 V2000
    1.0357   -0.2005    2.2355 C   0  0  0  0  0  0  0  0  0  0  0  0
    2.3250   -0.3238    1.9493 C   0  0  0  0  0  0  0  0  0  0  0  0
   -1.9736    1.0996    1.4531 C   0  0  0  0  0  0  0  0  0  0  0  0
    0.0643   -0.0712    1.3095 O   0  0  0  0  0  0  0  0  0  0  0  0
   -1.3024    0.0521    1.9202 O   0  0  0  0  0  0  0  0  0  0  0  0
   -3.0636    1.5073    1.7760 O   0  0  0  0  0  0  0  0  0  0  0  0
   -1.6275    3.2745   -1.6389 H   0  0  0  0  0  0  0  0  0  0  0  0
   -0.8859    3.4026   -1.4462 H   0  0  0  0  0  0  0  0  0  0  0  0
    0.6870   -0.2035    3.2597 H   0  0  0  0  0  0  0  0  0  0  0  0
   -1.4566    1.6603    0.6860 H   0  0  0  0  0  0  0  0  0  0  0  0
    2.6390   -0.3248    0.9255 H   0  0  0  0  0  0  0  0  0  0  0  0
    3.0621   -0.4278    2.7200 H   0  0  0  0  0  0  0  0  0  0  0  0
  1  2  2  0
  1  4  1  0
  1  9  1  0
  2 11  1  0
  2 12  1  0
  3  5  1  0
  3  6  2  0
  3 10  1  0
  4  5  1  0
  7  8  1  0
M  END
