C=COOC=O.[H][H]_12
     RDKit          3D

 12 10  0  0  0  0  0  0  0  0999 V2000
    1.3230   -0.0841    1.9698 C   0  0  0  0  0  0  0  0  0  0  0  0
    2.0476   -0.9221    2.6992 C   0  0  0  0  0  0  0  0  0  0  0  0
   -0.8954    1.3894    0.9676 C   0  0  0  0  0  0  0  0  0  0  0  0
    0.5517   -0.4631    0.9289 O   0  0  0  0  0  0  0  0  0  0  0  0
   -0.1040    0.6538    0.1963 O   0  0  0  0  0  0  0  0  0  0  0  0
   -0.9858    1.3227    2.1670 O   0  0  0  0  0  0  0  0  0  0  0  0
   -3.6147    3.1977   -1.4257 H   0  0  0  0  0  0  0  0  0  0  0  0
   -3.3084    3.7766   -1.0075 H   0  0  0  0  0  0  0  0  0  0  0  0
    1.3003    0.9747    2.1939 H   0  0  0  0  0  0  0  0  0  0  0  0
   -1.4820    2.1458    0.4669 H   0  0  0  0  0  0  0  0  0  0  0  0
    2.0368   -1.9672    2.4655 H   0  0  0  0  0  0  0  0  0  0  0  0
    2.6345   -0.5794    3.5277 H   0  0  0  0  0  0  0  0  0  0  0  0
  1  2  2  0
  1  4  1  0
  1  9  1  0
  2 11  1  0
  2 12  1  0
  3  5  1  0
  3  6  2  0
  3 10  1  0
  4  5  1  0
  7  8  1  0
M  END
