C=COOC=O.[H][H]
     RDKit          3D

 12 10  0  0  0  0  0  0  0  0999 V2000
    0.8235    0.4023    1.5881 C   0  0  0  0  0  0  0  0  0  0  0  0
    2.0038   -0.1128    1.9050 C   0  0  0  0  0  0  0  0  0  0  0  0
   -2.1253    0.8939    1.4662 C   0  0  0  0  0  0  0  0  0  0  0  0
   -0.1087   -0.3705    0.8910 O   0  0  0  0  0  0  0  0  0  0  0  0
   -1.3935    0.0363    0.6376 O   0  0  0  0  0  0  0  0  0  0  0  0
   -1.7605    1.1321    2.6476 O   0  0  0  0  0  0  0  0  0  0  0  0
   -0.3621    2.9154   -0.2751 H   0  0  0  0  0  0  0  0  0  0  0  0
   -0.1109    2.4474   -0.7432 H   0  0  0  0  0  0  0  0  0  0  0  0
    0.6031    1.4263    1.8598 H   0  0  0  0  0  0  0  0  0  0  0  0
   -3.0477    1.3226    1.0997 H   0  0  0  0  0  0  0  0  0  0  0  0
    2.2488   -1.1322    1.6356 H   0  0  0  0  0  0  0  0  0  0  0  0
    2.7330    0.4840    2.4374 H   0  0  0  0  0  0  0  0  0  0  0  0
  1  2  2  0
  1  4  1  0
  1  9  1  0
  2 11  1  0
  2 12  1  0
  3  5  1  0
  3  6  2  0
  3 10  1  0
  4  5  1  0
  7  8  1  0
M  END
