C=COOC=O.[H][H]_0
     RDKit          3D

 12 10  0  0  0  0  0  0  0  0999 V2000
    0.8467    0.9004    2.2207 C   0  0  0  0  0  0  0  0  0  0  0  0
    1.2422    0.0736    1.2633 C   0  0  0  0  0  0  0  0  0  0  0  0
   -1.8920    0.2366    1.1655 C   0  0  0  0  0  0  0  0  0  0  0  0
   -0.3614    0.8359    2.8196 O   0  0  0  0  0  0  0  0  0  0  0  0
   -1.2806   -0.1849    2.2665 O   0  0  0  0  0  0  0  0  0  0  0  0
   -1.6261    1.2298    0.5377 O   0  0  0  0  0  0  0  0  0  0  0  0
    0.0980    2.7889   -0.1028 H   0  0  0  0  0  0  0  0  0  0  0  0
    0.8747    2.8017   -0.1037 H   0  0  0  0  0  0  0  0  0  0  0  0
    1.4961    1.6913    2.5718 H   0  0  0  0  0  0  0  0  0  0  0  0
   -2.6757   -0.3990    0.7802 H   0  0  0  0  0  0  0  0  0  0  0  0
    0.5760   -0.6952    0.9277 H   0  0  0  0  0  0  0  0  0  0  0  0
    2.2057    0.1656    0.8031 H   0  0  0  0  0  0  0  0  0  0  0  0
  1  2  2  0
  1  4  1  0
  1  9  1  0
  2 11  1  0
  2 12  1  0
  3  5  1  0
  3  6  2  0
  3 10  1  0
  4  5  1  0
  7  8  1  0
M  END
