C=COOC=O.[H][H]_16
     RDKit          3D

 12 10  0  0  0  0  0  0  0  0999 V2000
    1.1099    0.2289    1.4146 C   0  0  0  0  0  0  0  0  0  0  0  0
    2.1336   -0.3034    2.0687 C   0  0  0  0  0  0  0  0  0  0  0  0
   -2.1932    0.8847    1.2834 C   0  0  0  0  0  0  0  0  0  0  0  0
   -0.1441   -0.2662    1.4399 O   0  0  0  0  0  0  0  0  0  0  0  0
   -1.0998    0.5423    0.6100 O   0  0  0  0  0  0  0  0  0  0  0  0
   -3.1147    1.5795    0.9273 O   0  0  0  0  0  0  0  0  0  0  0  0
   -0.2804    3.2453   -0.0884 H   0  0  0  0  0  0  0  0  0  0  0  0
   -0.9905    2.9910   -0.2743 H   0  0  0  0  0  0  0  0  0  0  0  0
    1.2349    1.1137    0.8048 H   0  0  0  0  0  0  0  0  0  0  0  0
   -2.2475    0.4887    2.2888 H   0  0  0  0  0  0  0  0  0  0  0  0
    1.9803   -1.1835    2.6591 H   0  0  0  0  0  0  0  0  0  0  0  0
    3.1148    0.1239    2.0159 H   0  0  0  0  0  0  0  0  0  0  0  0
  1  2  2  0
  1  4  1  0
  1  9  1  0
  2 11  1  0
  2 12  1  0
  3  5  1  0
  3  6  2  0
  3 10  1  0
  4  5  1  0
  7  8  1  0
M  END
