C=COOC=O.[H][H]_9
     RDKit          3D

 12 10  0  0  0  0  0  0  0  0999 V2000
    0.9829    0.2973    1.8921 C   0  0  0  0  0  0  0  0  0  0  0  0
    2.0461   -0.4199    2.2305 C   0  0  0  0  0  0  0  0  0  0  0  0
   -1.7241    1.0766    1.4897 C   0  0  0  0  0  0  0  0  0  0  0  0
    0.2948    0.1299    0.7431 O   0  0  0  0  0  0  0  0  0  0  0  0
   -0.8098    1.1034    0.5277 O   0  0  0  0  0  0  0  0  0  0  0  0
   -1.6444    0.4804    2.5335 O   0  0  0  0  0  0  0  0  0  0  0  0
   -1.5663    3.0059   -1.3725 H   0  0  0  0  0  0  0  0  0  0  0  0
   -1.0170    2.4724   -1.5033 H   0  0  0  0  0  0  0  0  0  0  0  0
    0.5930    1.0624    2.5512 H   0  0  0  0  0  0  0  0  0  0  0  0
   -2.6042    1.6824    1.3298 H   0  0  0  0  0  0  0  0  0  0  0  0
    2.3990   -1.1825    1.5664 H   0  0  0  0  0  0  0  0  0  0  0  0
    2.5536   -0.2636    3.1613 H   0  0  0  0  0  0  0  0  0  0  0  0
  1  2  2  0
  1  4  1  0
  1  9  1  0
  2 11  1  0
  2 12  1  0
  3  5  1  0
  3  6  2  0
  3 10  1  0
  4  5  1  0
  7  8  1  0
M  END
