C=COOC=O.[H][H]_7
     RDKit          3D

 12 10  0  0  0  0  0  0  0  0999 V2000
    0.7844    0.0362    1.4340 C   0  0  0  0  0  0  0  0  0  0  0  0
    1.9964   -0.1569    1.9371 C   0  0  0  0  0  0  0  0  0  0  0  0
   -1.9525    0.8060    1.2486 C   0  0  0  0  0  0  0  0  0  0  0  0
   -0.2676   -0.7765    1.6675 O   0  0  0  0  0  0  0  0  0  0  0  0
   -1.5127   -0.4082    0.9415 O   0  0  0  0  0  0  0  0  0  0  0  0
   -1.3681    1.6321    1.9023 O   0  0  0  0  0  0  0  0  0  0  0  0
   -0.2341    3.2836   -0.2909 H   0  0  0  0  0  0  0  0  0  0  0  0
   -0.5772    3.5306    0.3613 H   0  0  0  0  0  0  0  0  0  0  0  0
    0.5703    0.8921    0.8071 H   0  0  0  0  0  0  0  0  0  0  0  0
   -2.9104    1.0863    0.8354 H   0  0  0  0  0  0  0  0  0  0  0  0
    2.1748   -1.0034    2.5685 H   0  0  0  0  0  0  0  0  0  0  0  0
    2.8002    0.5230    1.7373 H   0  0  0  0  0  0  0  0  0  0  0  0
  1  2  2  0
  1  4  1  0
  1  9  1  0
  2 11  1  0
  2 12  1  0
  3  5  1  0
  3  6  2  0
  3 10  1  0
  4  5  1  0
  7  8  1  0
M  END
