C=COOC=O.[H][H]_2
     RDKit          3D

 12 10  0  0  0  0  0  0  0  0999 V2000
    0.8610   -0.1247    1.0769 C   0  0  0  0  0  0  0  0  0  0  0  0
    1.2195    0.7717    1.9849 C   0  0  0  0  0  0  0  0  0  0  0  0
   -1.9083    0.6851    1.9082 C   0  0  0  0  0  0  0  0  0  0  0  0
   -0.3059   -0.0855    0.3992 O   0  0  0  0  0  0  0  0  0  0  0  0
   -1.2327    0.9952    0.8078 O   0  0  0  0  0  0  0  0  0  0  0  0
   -1.6925   -0.2493    2.6375 O   0  0  0  0  0  0  0  0  0  0  0  0
    0.8506    2.5591   -0.5950 H   0  0  0  0  0  0  0  0  0  0  0  0
    0.1958    2.2057   -0.8184 H   0  0  0  0  0  0  0  0  0  0  0  0
    1.5095   -0.9562    0.8344 H   0  0  0  0  0  0  0  0  0  0  0  0
   -2.6993    1.3638    2.1915 H   0  0  0  0  0  0  0  0  0  0  0  0
    0.5549    1.5804    2.2128 H   0  0  0  0  0  0  0  0  0  0  0  0
    2.1510    0.6995    2.5099 H   0  0  0  0  0  0  0  0  0  0  0  0
  1  2  2  0
  1  4  1  0
  1  9  1  0
  2 11  1  0
  2 12  1  0
  3  5  1  0
  3  6  2  0
  3 10  1  0
  4  5  1  0
  7  8  1  0
M  END
