C=COOC=O.[H][H]_6
     RDKit          3D

 12 10  0  0  0  0  0  0  0  0999 V2000
    0.6747    0.2999    1.9420 C   0  0  0  0  0  0  0  0  0  0  0  0
    1.9555    0.0043    1.7647 C   0  0  0  0  0  0  0  0  0  0  0  0
   -2.0349    0.9676    1.3912 C   0  0  0  0  0  0  0  0  0  0  0  0
    0.1802    1.5556    1.9175 O   0  0  0  0  0  0  0  0  0  0  0  0
   -1.2717    1.6636    2.2251 O   0  0  0  0  0  0  0  0  0  0  0  0
   -1.6535    0.1785    0.5647 O   0  0  0  0  0  0  0  0  0  0  0  0
    0.0546    1.8613   -0.6373 H   0  0  0  0  0  0  0  0  0  0  0  0
   -0.1996    2.5087   -0.9838 H   0  0  0  0  0  0  0  0  0  0  0  0
   -0.0610   -0.4783    2.1006 H   0  0  0  0  0  0  0  0  0  0  0  0
   -3.1019    1.0993    1.4969 H   0  0  0  0  0  0  0  0  0  0  0  0
    2.6582    0.7938    1.5917 H   0  0  0  0  0  0  0  0  0  0  0  0
    2.3028   -1.0094    1.7764 H   0  0  0  0  0  0  0  0  0  0  0  0
  1  2  2  0
  1  4  1  0
  1  9  1  0
  2 11  1  0
  2 12  1  0
  3  5  1  0
  3  6  2  0
  3 10  1  0
  4  5  1  0
  7  8  1  0
M  END
