C=COOC=O.[H][H]_11
     RDKit          3D

 12 10  0  0  0  0  0  0  0  0999 V2000
    0.9494   -0.2727    1.6677 C   0  0  0  0  0  0  0  0  0  0  0  0
    2.1062   -0.4665    2.2871 C   0  0  0  0  0  0  0  0  0  0  0  0
   -1.5187    0.9051    0.8810 C   0  0  0  0  0  0  0  0  0  0  0  0
   -0.2529   -0.5675    2.2057 O   0  0  0  0  0  0  0  0  0  0  0  0
   -1.4137   -0.3499    1.3006 O   0  0  0  0  0  0  0  0  0  0  0  0
   -0.7053    1.7800    1.0373 O   0  0  0  0  0  0  0  0  0  0  0  0
   -1.3739    4.0622    0.1011 H   0  0  0  0  0  0  0  0  0  0  0  0
   -1.9446    4.1315   -0.4212 H   0  0  0  0  0  0  0  0  0  0  0  0
    0.9127    0.1626    0.6772 H   0  0  0  0  0  0  0  0  0  0  0  0
   -2.4045    1.1461    0.3115 H   0  0  0  0  0  0  0  0  0  0  0  0
    2.1109   -0.8824    3.2740 H   0  0  0  0  0  0  0  0  0  0  0  0
    3.0379   -0.2035    1.8278 H   0  0  0  0  0  0  0  0  0  0  0  0
  1  2  2  0
  1  4  1  0
  1  9  1  0
  2 11  1  0
  2 12  1  0
  3  5  1  0
  3  6  2  0
  3 10  1  0
  4  5  1  0
  7  8  1  0
M  END
