O[C@@H]1COCO1_0
     RDKit          3D

 12 12  0  0  0  0  0  0  0  0999 V2000
   -1.0517    0.4722    0.1135 C   0  0  0  0  0  0  0  0  0  0  0  0
    1.0142   -0.4500    0.3834 C   0  0  0  0  0  0  0  0  0  0  0  0
    0.5991    0.3132    1.6611 C   0  0  1  0  0  0  0  0  0  0  0  0
    0.0783   -0.0364   -0.5947 O   0  0  0  0  0  0  0  0  0  0  0  0
    1.3274    1.5114    1.7870 O   0  0  0  0  0  0  0  0  0  0  0  0
   -0.8060    0.5102    1.5144 O   0  0  0  0  0  0  0  0  0  0  0  0
    1.0159    2.1364    1.1025 H   0  0  0  0  0  0  0  0  0  0  0  0
   -1.9133   -0.1805   -0.0779 H   0  0  0  0  0  0  0  0  0  0  0  0
   -1.2723    1.4868   -0.2408 H   0  0  0  0  0  0  0  0  0  0  0  0
    0.7695   -0.2785    2.5757 H   0  0  0  0  0  0  0  0  0  0  0  0
    0.9468   -1.5396    0.4915 H   0  0  0  0  0  0  0  0  0  0  0  0
    2.0203   -0.1681    0.0509 H   0  0  0  0  0  0  0  0  0  0  0  0
  1  4  1  0
  1  6  1  0
  1  8  1  0
  1  9  1  0
  2  3  1  0
  2  4  1  0
  2 11  1  0
  2 12  1  0
  3  5  1  0
  3  6  1  0
  3 10  1  1
  5  7  1  0
M  END
