O[C@@H]1COCO1_1
     RDKit          3D

 12 12  0  0  0  0  0  0  0  0999 V2000
   -1.0701    0.4275    0.0772 C   0  0  0  0  0  0  0  0  0  0  0  0
    0.9892   -0.5243    0.3135 C   0  0  0  0  0  0  0  0  0  0  0  0
    0.6430    0.3701    1.5298 C   0  0  1  0  0  0  0  0  0  0  0  0
   -0.1224   -0.4198   -0.5638 O   0  0  0  0  0  0  0  0  0  0  0  0
    1.3796    1.5741    1.4899 O   0  0  0  0  0  0  0  0  0  0  0  0
   -0.7658    0.5687    1.4533 O   0  0  0  0  0  0  0  0  0  0  0  0
    0.9230    2.2433    2.0393 H   0  0  0  0  0  0  0  0  0  0  0  0
   -2.0719   -0.0103   -0.0273 H   0  0  0  0  0  0  0  0  0  0  0  0
   -1.0416    1.4167   -0.3979 H   0  0  0  0  0  0  0  0  0  0  0  0
    0.8601   -0.1384    2.4845 H   0  0  0  0  0  0  0  0  0  0  0  0
    1.1269   -1.5805    0.5765 H   0  0  0  0  0  0  0  0  0  0  0  0
    1.8779   -0.1502   -0.2084 H   0  0  0  0  0  0  0  0  0  0  0  0
  1  4  1  0
  1  6  1  0
  1  8  1  0
  1  9  1  0
  2  3  1  0
  2  4  1  0
  2 11  1  0
  2 12  1  0
  3  5  1  0
  3  6  1  0
  3 10  1  1
  5  7  1  0
M  END
