O[C@@H]1COCO1
     RDKit          3D

 12 12  0  0  0  0  0  0  0  0999 V2000
   -1.0801    0.3988    0.0273 C   0  0  0  0  0  0  0  0  0  0  0  0
    0.9552   -0.4380    0.3098 C   0  0  0  0  0  0  0  0  0  0  0  0
    0.6238    0.4480    1.4778 C   0  0  1  0  0  0  0  0  0  0  0  0
    0.0097   -0.1540   -0.6686 O   0  0  0  0  0  0  0  0  0  0  0  0
    1.4522    1.5795    1.4772 O   0  0  0  0  0  0  0  0  0  0  0  0
   -0.7047    0.8400    1.3109 O   0  0  0  0  0  0  0  0  0  0  0  0
    1.2445    2.0766    2.3109 H   0  0  0  0  0  0  0  0  0  0  0  0
   -1.8827   -0.3640    0.1214 H   0  0  0  0  0  0  0  0  0  0  0  0
   -1.4804    1.2586   -0.5495 H   0  0  0  0  0  0  0  0  0  0  0  0
    0.7391   -0.1133    2.4330 H   0  0  0  0  0  0  0  0  0  0  0  0
    0.8738   -1.5096    0.5976 H   0  0  0  0  0  0  0  0  0  0  0  0
    1.9776   -0.2456   -0.0813 H   0  0  0  0  0  0  0  0  0  0  0  0
  1  4  1  0
  1  6  1  0
  1  8  1  0
  1  9  1  0
  2  3  1  0
  2  4  1  0
  2 11  1  0
  2 12  1  0
  3  5  1  0
  3  6  1  0
  3 10  1  1
  5  7  1  0
M  END
