OC=C.O=C=O.[H][H]_6
     RDKit          3D

 12  9  0  0  0  0  0  0  0  0999 V2000
   -0.7512    2.3890    0.2064 C   0  0  0  0  0  0  0  0  0  0  0  0
    0.3556    1.6810    0.3935 C   0  0  0  0  0  0  0  0  0  0  0  0
   -2.1183   -0.5223    2.0831 C   0  0  0  0  0  0  0  0  0  0  0  0
   -2.7159    0.3877    1.6825 O   0  0  0  0  0  0  0  0  0  0  0  0
    0.3658    0.4803    1.0563 O   0  0  0  0  0  0  0  0  0  0  0  0
   -1.5458   -1.4479    2.4853 O   0  0  0  0  0  0  0  0  0  0  0  0
    1.2769    0.1092    1.0931 H   0  0  0  0  0  0  0  0  0  0  0  0
   -0.7474    3.3260   -0.3129 H   0  0  0  0  0  0  0  0  0  0  0  0
   -1.6807    2.0144    0.5851 H   0  0  0  0  0  0  0  0  0  0  0  0
   -4.3231    2.9619    0.7619 H   0  0  0  0  0  0  0  0  0  0  0  0
   -4.4511    2.3109    1.1660 H   0  0  0  0  0  0  0  0  0  0  0  0
    1.2980    2.0559    0.0122 H   0  0  0  0  0  0  0  0  0  0  0  0
  1  2  2  0
  1  8  1  0
  1  9  1  0
  2  5  1  0
  2 12  1  0
  3  4  2  0
  3  6  2  0
  5  7  1  0
 10 11  1  0
M  END
