OC=C.O=C=O.[H][H]_7
     RDKit          3D

 12  9  0  0  0  0  0  0  0  0999 V2000
   -0.1152    2.6857    0.1535 C   0  0  0  0  0  0  0  0  0  0  0  0
    0.5259    1.5332    0.0056 C   0  0  0  0  0  0  0  0  0  0  0  0
   -2.2245    0.4476    2.2568 C   0  0  0  0  0  0  0  0  0  0  0  0
   -2.0967   -0.6896    2.4481 O   0  0  0  0  0  0  0  0  0  0  0  0
    0.1190    0.3734    0.6138 O   0  0  0  0  0  0  0  0  0  0  0  0
   -2.3750    1.5844    2.0815 O   0  0  0  0  0  0  0  0  0  0  0  0
    0.7203   -0.3714    0.3840 H   0  0  0  0  0  0  0  0  0  0  0  0
    0.2123    3.5855   -0.3268 H   0  0  0  0  0  0  0  0  0  0  0  0
   -0.9889    2.7218    0.7726 H   0  0  0  0  0  0  0  0  0  0  0  0
   -5.1339    0.8138    1.8104 H   0  0  0  0  0  0  0  0  0  0  0  0
   -5.0906    1.5688    1.6326 H   0  0  0  0  0  0  0  0  0  0  0  0
    1.4102    1.4926   -0.6194 H   0  0  0  0  0  0  0  0  0  0  0  0
  1  2  2  0
  1  8  1  0
  1  9  1  0
  2  5  1  0
  2 12  1  0
  3  4  2  0
  3  6  2  0
  5  7  1  0
 10 11  1  0
M  END
