OC=C.O=C=O.[H][H]_5
     RDKit          3D

 12  9  0  0  0  0  0  0  0  0999 V2000
   -0.2667    1.3741   -1.0029 C   0  0  0  0  0  0  0  0  0  0  0  0
   -0.1277    2.0976    0.1009 C   0  0  0  0  0  0  0  0  0  0  0  0
   -2.8942   -0.1679    1.1426 C   0  0  0  0  0  0  0  0  0  0  0  0
   -2.6162   -0.4631    0.0557 O   0  0  0  0  0  0  0  0  0  0  0  0
   -0.8984    1.9036    1.2185 O   0  0  0  0  0  0  0  0  0  0  0  0
   -3.1917    0.1080    2.2296 O   0  0  0  0  0  0  0  0  0  0  0  0
   -0.6463    2.5355    1.9300 H   0  0  0  0  0  0  0  0  0  0  0  0
    0.3414    1.5351   -1.8700 H   0  0  0  0  0  0  0  0  0  0  0  0
   -1.0100    0.6031   -1.0319 H   0  0  0  0  0  0  0  0  0  0  0  0
   -2.4611    1.9166    4.0587 H   0  0  0  0  0  0  0  0  0  0  0  0
   -1.8894    1.4252    4.2471 H   0  0  0  0  0  0  0  0  0  0  0  0
    0.6231    2.8783    0.1343 H   0  0  0  0  0  0  0  0  0  0  0  0
  1  2  2  0
  1  8  1  0
  1  9  1  0
  2  5  1  0
  2 12  1  0
  3  4  2  0
  3  6  2  0
  5  7  1  0
 10 11  1  0
M  END
