OC=C.O=C=O.[H][H]_12
     RDKit          3D

 12  9  0  0  0  0  0  0  0  0999 V2000
   -0.2459    2.1981   -0.7185 C   0  0  0  0  0  0  0  0  0  0  0  0
    0.6517    1.4944   -0.0401 C   0  0  0  0  0  0  0  0  0  0  0  0
   -2.3028    1.0569    2.1710 C   0  0  0  0  0  0  0  0  0  0  0  0
   -2.6525    1.7231    1.2880 O   0  0  0  0  0  0  0  0  0  0  0  0
    0.3602    0.8591    1.1399 O   0  0  0  0  0  0  0  0  0  0  0  0
   -1.9788    0.3919    3.0648 O   0  0  0  0  0  0  0  0  0  0  0  0
    1.1526    0.3917    1.4903 H   0  0  0  0  0  0  0  0  0  0  0  0
   -0.0063    2.6903   -1.6393 H   0  0  0  0  0  0  0  0  0  0  0  0
   -1.2436    2.2791   -0.3364 H   0  0  0  0  0  0  0  0  0  0  0  0
   -5.1397    0.2465    2.6447 H   0  0  0  0  0  0  0  0  0  0  0  0
   -5.2939    1.0042    2.5708 H   0  0  0  0  0  0  0  0  0  0  0  0
    1.6621    1.4107   -0.4227 H   0  0  0  0  0  0  0  0  0  0  0  0
  1  2  2  0
  1  8  1  0
  1  9  1  0
  2  5  1  0
  2 12  1  0
  3  4  2  0
  3  6  2  0
  5  7  1  0
 10 11  1  0
M  END
