OC=C.O=C=O.[H][H]_4
     RDKit          3D

 12  9  0  0  0  0  0  0  0  0999 V2000
   -0.2031    1.3188   -0.9564 C   0  0  0  0  0  0  0  0  0  0  0  0
   -0.1910    2.1307    0.0933 C   0  0  0  0  0  0  0  0  0  0  0  0
   -2.9117   -0.1983    1.1012 C   0  0  0  0  0  0  0  0  0  0  0  0
   -2.5364   -0.5621    0.0656 O   0  0  0  0  0  0  0  0  0  0  0  0
   -1.0390    1.9784    1.1603 O   0  0  0  0  0  0  0  0  0  0  0  0
   -3.3051    0.1445    2.1374 O   0  0  0  0  0  0  0  0  0  0  0  0
   -0.8786    2.6765    1.8357 H   0  0  0  0  0  0  0  0  0  0  0  0
    0.4642    1.4482   -1.7844 H   0  0  0  0  0  0  0  0  0  0  0  0
   -0.9014    0.5066   -0.9806 H   0  0  0  0  0  0  0  0  0  0  0  0
   -1.7697    1.9225    4.3663 H   0  0  0  0  0  0  0  0  0  0  0  0
   -2.2787    1.4265    4.0528 H   0  0  0  0  0  0  0  0  0  0  0  0
    0.5135    2.9536    0.1214 H   0  0  0  0  0  0  0  0  0  0  0  0
  1  2  2  0
  1  8  1  0
  1  9  1  0
  2  5  1  0
  2 12  1  0
  3  4  2  0
  3  6  2  0
  5  7  1  0
 10 11  1  0
M  END
