OC=C.O=C=O.[H][H]_10
     RDKit          3D

 12  9  0  0  0  0  0  0  0  0999 V2000
   -0.2997    2.3453   -0.4817 C   0  0  0  0  0  0  0  0  0  0  0  0
    0.6140    1.5126    0.0008 C   0  0  0  0  0  0  0  0  0  0  0  0
   -2.2086    0.7611    2.2984 C   0  0  0  0  0  0  0  0  0  0  0  0
   -2.5886    1.5788    1.5685 O   0  0  0  0  0  0  0  0  0  0  0  0
    0.3749    0.6844    1.0675 O   0  0  0  0  0  0  0  0  0  0  0  0
   -1.8533   -0.0566    3.0410 O   0  0  0  0  0  0  0  0  0  0  0  0
    1.1713    0.1445    1.2762 H   0  0  0  0  0  0  0  0  0  0  0  0
   -0.1013    2.9878   -1.3156 H   0  0  0  0  0  0  0  0  0  0  0  0
   -1.2685    2.3794   -0.0253 H   0  0  0  0  0  0  0  0  0  0  0  0
   -5.1801    0.7123    2.4086 H   0  0  0  0  0  0  0  0  0  0  0  0
   -5.2924    1.2208    1.8321 H   0  0  0  0  0  0  0  0  0  0  0  0
    1.5951    1.4754   -0.4578 H   0  0  0  0  0  0  0  0  0  0  0  0
  1  2  2  0
  1  8  1  0
  1  9  1  0
  2  5  1  0
  2 12  1  0
  3  4  2  0
  3  6  2  0
  5  7  1  0
 10 11  1  0
M  END
