OC=C.O=C=O.[H][H]_2
     RDKit          3D

 12  9  0  0  0  0  0  0  0  0999 V2000
    0.6017    1.8956   -1.1840 C   0  0  0  0  0  0  0  0  0  0  0  0
   -0.2097    1.5971   -0.1797 C   0  0  0  0  0  0  0  0  0  0  0  0
   -2.3646    0.9228    2.3152 C   0  0  0  0  0  0  0  0  0  0  0  0
   -2.6458    1.8191    1.6343 O   0  0  0  0  0  0  0  0  0  0  0  0
   -0.0141    0.5864    0.7181 O   0  0  0  0  0  0  0  0  0  0  0  0
   -2.1058    0.0306    3.0103 O   0  0  0  0  0  0  0  0  0  0  0  0
    0.8208    0.1099    0.5108 H   0  0  0  0  0  0  0  0  0  0  0  0
    0.3918    2.7028   -1.8555 H   0  0  0  0  0  0  0  0  0  0  0  0
    1.4920    1.3215   -1.3371 H   0  0  0  0  0  0  0  0  0  0  0  0
   -4.9823    1.6473    3.6407 H   0  0  0  0  0  0  0  0  0  0  0  0
   -4.9092    0.9411    3.9562 H   0  0  0  0  0  0  0  0  0  0  0  0
   -1.1120    2.1715   -0.0168 H   0  0  0  0  0  0  0  0  0  0  0  0
  1  2  2  0
  1  8  1  0
  1  9  1  0
  2  5  1  0
  2 12  1  0
  3  4  2  0
  3  6  2  0
  5  7  1  0
 10 11  1  0
M  END
