OC=C.O=C=O.[H][H]_11
     RDKit          3D

 12  9  0  0  0  0  0  0  0  0999 V2000
   -0.0978    2.4572   -0.5966 C   0  0  0  0  0  0  0  0  0  0  0  0
    0.6114    1.4872   -0.0335 C   0  0  0  0  0  0  0  0  0  0  0  0
   -2.4233    1.3788    2.1079 C   0  0  0  0  0  0  0  0  0  0  0  0
   -2.2629    0.5491    2.9029 O   0  0  0  0  0  0  0  0  0  0  0  0
    0.1570    0.7601    1.0369 O   0  0  0  0  0  0  0  0  0  0  0  0
   -2.6085    2.2138    1.3242 O   0  0  0  0  0  0  0  0  0  0  0  0
    0.8227    0.0888    1.3114 H   0  0  0  0  0  0  0  0  0  0  0  0
    0.2678    3.0185   -1.4326 H   0  0  0  0  0  0  0  0  0  0  0  0
   -1.0678    2.6899   -0.2056 H   0  0  0  0  0  0  0  0  0  0  0  0
   -4.9206   -0.3573    2.8596 H   0  0  0  0  0  0  0  0  0  0  0  0
   -5.1082    0.2110    2.3642 H   0  0  0  0  0  0  0  0  0  0  0  0
    1.5929    1.2487   -0.4261 H   0  0  0  0  0  0  0  0  0  0  0  0
  1  2  2  0
  1  8  1  0
  1  9  1  0
  2  5  1  0
  2 12  1  0
  3  4  2  0
  3  6  2  0
  5  7  1  0
 10 11  1  0
M  END
