OC=C.O=C=O.[H][H]
     RDKit          3D

 12  9  0  0  0  0  0  0  0  0999 V2000
   -0.8610    1.9603   -0.4596 C   0  0  0  0  0  0  0  0  0  0  0  0
   -0.0755    1.8692    0.6052 C   0  0  0  0  0  0  0  0  0  0  0  0
   -2.5862   -0.4956    1.7105 C   0  0  0  0  0  0  0  0  0  0  0  0
   -3.1688   -0.5833    0.6223 O   0  0  0  0  0  0  0  0  0  0  0  0
    0.6308    0.6983    0.8544 O   0  0  0  0  0  0  0  0  0  0  0  0
   -2.0032   -0.4070    2.7984 O   0  0  0  0  0  0  0  0  0  0  0  0
    1.2276    0.6245    1.6690 H   0  0  0  0  0  0  0  0  0  0  0  0
   -1.4128    2.8711   -0.6520 H   0  0  0  0  0  0  0  0  0  0  0  0
   -0.9605    1.1261   -1.1422 H   0  0  0  0  0  0  0  0  0  0  0  0
   -2.7038    2.7057    2.2402 H   0  0  0  0  0  0  0  0  0  0  0  0
   -3.1386    2.6683    1.6827 H   0  0  0  0  0  0  0  0  0  0  0  0
    0.0149    2.7083    1.2837 H   0  0  0  0  0  0  0  0  0  0  0  0
  1  2  2  0
  1  8  1  0
  1  9  1  0
  2  5  1  0
  2 12  1  0
  3  4  2  0
  3  6  2  0
  5  7  1  0
 10 11  1  0
M  END
