OC=C.O=C=O.[H][H]_15
     RDKit          3D

 12  9  0  0  0  0  0  0  0  0999 V2000
   -0.4133    2.3737   -0.2277 C   0  0  0  0  0  0  0  0  0  0  0  0
    0.5752    1.5559    0.1117 C   0  0  0  0  0  0  0  0  0  0  0  0
   -2.1512    0.1732    2.2251 C   0  0  0  0  0  0  0  0  0  0  0  0
   -2.6034    1.0700    1.6446 O   0  0  0  0  0  0  0  0  0  0  0  0
    0.4211    0.5416    1.0217 O   0  0  0  0  0  0  0  0  0  0  0  0
   -1.7235   -0.7279    2.8177 O   0  0  0  0  0  0  0  0  0  0  0  0
    1.2642    0.0472    1.1401 H   0  0  0  0  0  0  0  0  0  0  0  0
   -0.2809    3.1627   -0.9401 H   0  0  0  0  0  0  0  0  0  0  0  0
   -1.3767    2.2440    0.2229 H   0  0  0  0  0  0  0  0  0  0  0  0
   -5.0356    2.1044    1.9963 H   0  0  0  0  0  0  0  0  0  0  0  0
   -5.2641    1.5171    1.5419 H   0  0  0  0  0  0  0  0  0  0  0  0
    1.5510    1.6839   -0.3418 H   0  0  0  0  0  0  0  0  0  0  0  0
  1  2  2  0
  1  8  1  0
  1  9  1  0
  2  5  1  0
  2 12  1  0
  3  4  2  0
  3  6  2  0
  5  7  1  0
 10 11  1  0
M  END
