OC=C.O=C=O.[H][H]_3
     RDKit          3D

 12  9  0  0  0  0  0  0  0  0999 V2000
   -1.0646    2.8842    0.3275 C   0  0  0  0  0  0  0  0  0  0  0  0
   -0.0538    2.0473    0.5248 C   0  0  0  0  0  0  0  0  0  0  0  0
   -2.6685    0.4032    2.5930 C   0  0  0  0  0  0  0  0  0  0  0  0
   -3.1504    1.3710    2.1724 O   0  0  0  0  0  0  0  0  0  0  0  0
   -0.1483    0.9469    1.3379 O   0  0  0  0  0  0  0  0  0  0  0  0
   -2.2113   -0.5726    3.0229 O   0  0  0  0  0  0  0  0  0  0  0  0
    0.7032    0.4530    1.3580 H   0  0  0  0  0  0  0  0  0  0  0  0
   -0.9790    3.7404   -0.3104 H   0  0  0  0  0  0  0  0  0  0  0  0
   -1.9982    2.7011    0.8200 H   0  0  0  0  0  0  0  0  0  0  0  0
   -2.5281   -0.0618   -0.3678 H   0  0  0  0  0  0  0  0  0  0  0  0
   -1.8305   -0.3958   -0.2940 H   0  0  0  0  0  0  0  0  0  0  0  0
    0.8922    2.2289    0.0284 H   0  0  0  0  0  0  0  0  0  0  0  0
  1  2  2  0
  1  8  1  0
  1  9  1  0
  2  5  1  0
  2 12  1  0
  3  4  2  0
  3  6  2  0
  5  7  1  0
 10 11  1  0
M  END
