OCC(=O)C=O.[H][H]
     RDKit          3D

 12 10  0  0  0  0  0  0  0  0999 V2000
   -0.8924    1.1717    2.3857 C   0  0  0  0  0  0  0  0  0  0  0  0
    0.9621    1.3747    0.5954 C   0  0  0  0  0  0  0  0  0  0  0  0
    0.0120    1.9958    1.5730 C   0  0  0  0  0  0  0  0  0  0  0  0
   -0.8888   -0.0836    2.2843 O   0  0  0  0  0  0  0  0  0  0  0  0
    0.2567    0.9651   -0.5419 O   0  0  0  0  0  0  0  0  0  0  0  0
   -0.0389    3.2501    1.6779 O   0  0  0  0  0  0  0  0  0  0  0  0
    0.9268    0.5547   -1.1480 H   0  0  0  0  0  0  0  0  0  0  0  0
   -2.7265    1.5570   -0.1870 H   0  0  0  0  0  0  0  0  0  0  0  0
   -1.5743    1.6458    3.0796 H   0  0  0  0  0  0  0  0  0  0  0  0
   -2.5734    2.2462   -0.2396 H   0  0  0  0  0  0  0  0  0  0  0  0
    1.7422    2.1148    0.3079 H   0  0  0  0  0  0  0  0  0  0  0  0
    1.4650    0.5014    1.0675 H   0  0  0  0  0  0  0  0  0  0  0  0
  1  3  1  0
  1  4  2  0
  1  9  1  0
  2  3  1  0
  2  5  1  0
  2 11  1  0
  2 12  1  0
  3  6  2  0
  5  7  1  0
  8 10  1  0
M  END
