OCC(=O)C=O.[H][H]_18
     RDKit          3D

 12 10  0  0  0  0  0  0  0  0999 V2000
   -0.8322    1.4336    2.3819 C   0  0  0  0  0  0  0  0  0  0  0  0
    0.4665    1.1864    0.1978 C   0  0  0  0  0  0  0  0  0  0  0  0
    0.2800    1.8522    1.5238 C   0  0  0  0  0  0  0  0  0  0  0  0
   -1.6046    0.5688    2.0772 O   0  0  0  0  0  0  0  0  0  0  0  0
    1.8244    1.1746   -0.1505 O   0  0  0  0  0  0  0  0  0  0  0  0
    1.0423    2.7263    1.8428 O   0  0  0  0  0  0  0  0  0  0  0  0
    2.2733    1.9378    0.2770 H   0  0  0  0  0  0  0  0  0  0  0  0
   -2.7242    1.4792   -0.4296 H   0  0  0  0  0  0  0  0  0  0  0  0
   -0.9720    1.9181    3.3401 H   0  0  0  0  0  0  0  0  0  0  0  0
   -3.1131    1.1496    0.1566 H   0  0  0  0  0  0  0  0  0  0  0  0
    0.1147    0.1455    0.2254 H   0  0  0  0  0  0  0  0  0  0  0  0
   -0.0845    1.7215   -0.5877 H   0  0  0  0  0  0  0  0  0  0  0  0
  1  3  1  0
  1  4  2  0
  1  9  1  0
  2  3  1  0
  2  5  1  0
  2 11  1  0
  2 12  1  0
  3  6  2  0
  5  7  1  0
  8 10  1  0
M  END
