OCC(=O)C=O.[H][H]_5
     RDKit          3D

 12 10  0  0  0  0  0  0  0  0999 V2000
   -0.3866    0.7391    2.5305 C   0  0  0  0  0  0  0  0  0  0  0  0
    0.3805    1.4123    0.1870 C   0  0  0  0  0  0  0  0  0  0  0  0
   -0.3547    1.7388    1.4555 C   0  0  0  0  0  0  0  0  0  0  0  0
    0.1604   -0.3254    2.4676 O   0  0  0  0  0  0  0  0  0  0  0  0
    1.5273    0.6272    0.3980 O   0  0  0  0  0  0  0  0  0  0  0  0
   -0.9273    2.7931    1.5738 O   0  0  0  0  0  0  0  0  0  0  0  0
    1.3434   -0.0259    1.1052 H   0  0  0  0  0  0  0  0  0  0  0  0
   -2.3951    3.2950   -0.4441 H   0  0  0  0  0  0  0  0  0  0  0  0
   -0.9309    0.9650    3.4393 H   0  0  0  0  0  0  0  0  0  0  0  0
   -2.1833    2.8523   -1.0464 H   0  0  0  0  0  0  0  0  0  0  0  0
   -0.2778    0.8822   -0.5147 H   0  0  0  0  0  0  0  0  0  0  0  0
    0.7144    2.3401   -0.2969 H   0  0  0  0  0  0  0  0  0  0  0  0
  1  3  1  0
  1  4  2  0
  1  9  1  0
  2  3  1  0
  2  5  1  0
  2 11  1  0
  2 12  1  0
  3  6  2  0
  5  7  1  0
  8 10  1  0
M  END
