OCC(=O)C=O.[H][H]_4
     RDKit          3D

 12 10  0  0  0  0  0  0  0  0999 V2000
   -0.4655    0.7572    2.4771 C   0  0  0  0  0  0  0  0  0  0  0  0
    0.4573    1.4278    0.1899 C   0  0  0  0  0  0  0  0  0  0  0  0
   -0.3020    1.7806    1.4370 C   0  0  0  0  0  0  0  0  0  0  0  0
   -0.0069   -0.3476    2.4030 O   0  0  0  0  0  0  0  0  0  0  0  0
    1.5252    0.5442    0.4236 O   0  0  0  0  0  0  0  0  0  0  0  0
   -0.7871    2.8767    1.5655 O   0  0  0  0  0  0  0  0  0  0  0  0
    1.2572   -0.1109    1.1015 H   0  0  0  0  0  0  0  0  0  0  0  0
   -2.2510    2.7769   -0.9410 H   0  0  0  0  0  0  0  0  0  0  0  0
   -1.0289    1.0026    3.3689 H   0  0  0  0  0  0  0  0  0  0  0  0
   -2.4031    3.2758   -0.3652 H   0  0  0  0  0  0  0  0  0  0  0  0
   -0.2116    0.9735   -0.5536 H   0  0  0  0  0  0  0  0  0  0  0  0
    0.8869    2.3370   -0.2519 H   0  0  0  0  0  0  0  0  0  0  0  0
  1  3  1  0
  1  4  2  0
  1  9  1  0
  2  3  1  0
  2  5  1  0
  2 11  1  0
  2 12  1  0
  3  6  2  0
  5  7  1  0
  8 10  1  0
M  END
