OCC(=O)C=O.[H][H]_8
     RDKit          3D

 12 10  0  0  0  0  0  0  0  0999 V2000
   -0.1432    0.8361    2.9009 C   0  0  0  0  0  0  0  0  0  0  0  0
   -0.0450    1.9067    0.5809 C   0  0  0  0  0  0  0  0  0  0  0  0
    0.4944    1.7830    1.9772 C   0  0  0  0  0  0  0  0  0  0  0  0
   -1.0667    0.1326    2.6029 O   0  0  0  0  0  0  0  0  0  0  0  0
   -0.5273    0.6919    0.0631 O   0  0  0  0  0  0  0  0  0  0  0  0
    1.4182    2.4699    2.3355 O   0  0  0  0  0  0  0  0  0  0  0  0
   -0.9708    0.1914    0.7796 H   0  0  0  0  0  0  0  0  0  0  0  0
   -1.3282    1.4285   -2.3939 H   0  0  0  0  0  0  0  0  0  0  0  0
    0.2343    0.7578    3.9130 H   0  0  0  0  0  0  0  0  0  0  0  0
   -1.2892    2.2034   -2.3556 H   0  0  0  0  0  0  0  0  0  0  0  0
   -0.8573    2.6454    0.5460 H   0  0  0  0  0  0  0  0  0  0  0  0
    0.7512    2.2471   -0.0948 H   0  0  0  0  0  0  0  0  0  0  0  0
  1  3  1  0
  1  4  2  0
  1  9  1  0
  2  3  1  0
  2  5  1  0
  2 11  1  0
  2 12  1  0
  3  6  2  0
  5  7  1  0
  8 10  1  0
M  END
