OCC(=O)C=O.[H][H]_12
     RDKit          3D

 12 10  0  0  0  0  0  0  0  0999 V2000
   -0.8331    1.6886    2.1436 C   0  0  0  0  0  0  0  0  0  0  0  0
    1.2292    1.4847    0.6459 C   0  0  0  0  0  0  0  0  0  0  0  0
    0.6274    1.6050    2.0168 C   0  0  0  0  0  0  0  0  0  0  0  0
   -1.5869    1.6483    1.2128 O   0  0  0  0  0  0  0  0  0  0  0  0
    0.4396    0.7338   -0.2423 O   0  0  0  0  0  0  0  0  0  0  0  0
    1.3369    1.6574    2.9901 O   0  0  0  0  0  0  0  0  0  0  0  0
   -0.5059    0.9297   -0.0753 H   0  0  0  0  0  0  0  0  0  0  0  0
   -3.0107    1.0090   -1.2634 H   0  0  0  0  0  0  0  0  0  0  0  0
   -1.2676    1.7914    3.1304 H   0  0  0  0  0  0  0  0  0  0  0  0
   -3.3536    1.2875   -0.6240 H   0  0  0  0  0  0  0  0  0  0  0  0
    1.3930    2.4789    0.2084 H   0  0  0  0  0  0  0  0  0  0  0  0
    2.2022    0.9794    0.7117 H   0  0  0  0  0  0  0  0  0  0  0  0
  1  3  1  0
  1  4  2  0
  1  9  1  0
  2  3  1  0
  2  5  1  0
  2 11  1  0
  2 12  1  0
  3  6  2  0
  5  7  1  0
  8 10  1  0
M  END
