OCC(=O)C=O.[H][H]_17
     RDKit          3D

 12 10  0  0  0  0  0  0  0  0999 V2000
   -0.8214    1.0997    2.4263 C   0  0  0  0  0  0  0  0  0  0  0  0
    0.9048    1.4819    0.5863 C   0  0  0  0  0  0  0  0  0  0  0  0
   -0.4060    0.9169    1.0326 C   0  0  0  0  0  0  0  0  0  0  0  0
   -0.1550    1.6799    3.2368 O   0  0  0  0  0  0  0  0  0  0  0  0
    1.4217    0.7278   -0.4768 O   0  0  0  0  0  0  0  0  0  0  0  0
   -1.0925    0.3427    0.2290 O   0  0  0  0  0  0  0  0  0  0  0  0
    0.6797    0.2993   -0.9591 H   0  0  0  0  0  0  0  0  0  0  0  0
   -2.4817    2.7805   -0.0036 H   0  0  0  0  0  0  0  0  0  0  0  0
   -1.7716    0.6958    2.7524 H   0  0  0  0  0  0  0  0  0  0  0  0
   -2.0339    3.2848    0.3822 H   0  0  0  0  0  0  0  0  0  0  0  0
    0.7860    2.5198    0.2460 H   0  0  0  0  0  0  0  0  0  0  0  0
    1.6404    1.4646    1.4027 H   0  0  0  0  0  0  0  0  0  0  0  0
  1  3  1  0
  1  4  2  0
  1  9  1  0
  2  3  1  0
  2  5  1  0
  2 11  1  0
  2 12  1  0
  3  6  2  0
  5  7  1  0
  8 10  1  0
M  END
