OCC(=O)C=O.[H][H]_10
     RDKit          3D

 12 10  0  0  0  0  0  0  0  0999 V2000
   -0.3895    0.9718    2.8296 C   0  0  0  0  0  0  0  0  0  0  0  0
    0.3055    1.8622    0.5361 C   0  0  0  0  0  0  0  0  0  0  0  0
    0.5545    1.7449    2.0127 C   0  0  0  0  0  0  0  0  0  0  0  0
   -1.3480    0.4058    2.3852 O   0  0  0  0  0  0  0  0  0  0  0  0
   -0.2679    0.7066   -0.0225 O   0  0  0  0  0  0  0  0  0  0  0  0
    1.4993    2.2990    2.5163 O   0  0  0  0  0  0  0  0  0  0  0  0
   -0.9130    0.3297    0.6118 H   0  0  0  0  0  0  0  0  0  0  0  0
   -1.9677    1.9105   -1.9449 H   0  0  0  0  0  0  0  0  0  0  0  0
   -0.2203    0.8990    3.8970 H   0  0  0  0  0  0  0  0  0  0  0  0
   -1.4844    1.4188   -2.3021 H   0  0  0  0  0  0  0  0  0  0  0  0
   -0.3540    2.7146    0.3233 H   0  0  0  0  0  0  0  0  0  0  0  0
    1.2560    2.0308    0.0124 H   0  0  0  0  0  0  0  0  0  0  0  0
  1  3  1  0
  1  4  2  0
  1  9  1  0
  2  3  1  0
  2  5  1  0
  2 11  1  0
  2 12  1  0
  3  6  2  0
  5  7  1  0
  8 10  1  0
M  END
