OCC(=O)C=O.[H][H]_9
     RDKit          3D

 12 10  0  0  0  0  0  0  0  0999 V2000
   -0.3168    0.9278    2.8618 C   0  0  0  0  0  0  0  0  0  0  0  0
    0.2061    1.8757    0.5459 C   0  0  0  0  0  0  0  0  0  0  0  0
    0.5410    1.7563    2.0051 C   0  0  0  0  0  0  0  0  0  0  0  0
   -1.2673    0.3167    2.4624 O   0  0  0  0  0  0  0  0  0  0  0  0
   -0.3370    0.6978    0.0039 O   0  0  0  0  0  0  0  0  0  0  0  0
    1.4831    2.3524    2.4641 O   0  0  0  0  0  0  0  0  0  0  0  0
   -0.9252    0.2808    0.6677 H   0  0  0  0  0  0  0  0  0  0  0  0
   -1.6921    2.0933   -2.1419 H   0  0  0  0  0  0  0  0  0  0  0  0
   -0.0873    0.8546    3.9178 H   0  0  0  0  0  0  0  0  0  0  0  0
   -1.5439    1.3445   -2.2860 H   0  0  0  0  0  0  0  0  0  0  0  0
   -0.5069    2.6948    0.3804 H   0  0  0  0  0  0  0  0  0  0  0  0
    1.1167    2.0990   -0.0262 H   0  0  0  0  0  0  0  0  0  0  0  0
  1  3  1  0
  1  4  2  0
  1  9  1  0
  2  3  1  0
  2  5  1  0
  2 11  1  0
  2 12  1  0
  3  6  2  0
  5  7  1  0
  8 10  1  0
M  END
