OCC(=O)C=O.[H][H]_7
     RDKit          3D

 12 10  0  0  0  0  0  0  0  0999 V2000
   -0.9480    0.6036    1.3495 C   0  0  0  0  0  0  0  0  0  0  0  0
    1.2879    1.5423    0.5393 C   0  0  0  0  0  0  0  0  0  0  0  0
   -0.1983    1.6872    0.7014 C   0  0  0  0  0  0  0  0  0  0  0  0
   -0.4462   -0.4099    1.7462 O   0  0  0  0  0  0  0  0  0  0  0  0
    1.6935    0.2171    0.3030 O   0  0  0  0  0  0  0  0  0  0  0  0
   -0.7559    2.6883    0.3268 O   0  0  0  0  0  0  0  0  0  0  0  0
    1.1401   -0.3883    0.8393 H   0  0  0  0  0  0  0  0  0  0  0  0
   -3.4756    3.0682    1.4571 H   0  0  0  0  0  0  0  0  0  0  0  0
   -2.0175    0.7122    1.4815 H   0  0  0  0  0  0  0  0  0  0  0  0
   -3.0466    3.5255    0.9985 H   0  0  0  0  0  0  0  0  0  0  0  0
    1.6263    2.1367   -0.3201 H   0  0  0  0  0  0  0  0  0  0  0  0
    1.8107    1.9108    1.4324 H   0  0  0  0  0  0  0  0  0  0  0  0
  1  3  1  0
  1  4  2  0
  1  9  1  0
  2  3  1  0
  2  5  1  0
  2 11  1  0
  2 12  1  0
  3  6  2  0
  5  7  1  0
  8 10  1  0
M  END
