OCC(=O)C=O.[H][H]_19
     RDKit          3D

 12 10  0  0  0  0  0  0  0  0999 V2000
   -0.9202    1.1088    2.2907 C   0  0  0  0  0  0  0  0  0  0  0  0
    0.8494    1.5925    0.5168 C   0  0  0  0  0  0  0  0  0  0  0  0
   -0.3066    0.7769    1.0017 C   0  0  0  0  0  0  0  0  0  0  0  0
   -0.5402    2.0110    2.9830 O   0  0  0  0  0  0  0  0  0  0  0  0
    1.6764    0.8186   -0.3097 O   0  0  0  0  0  0  0  0  0  0  0  0
   -0.7123   -0.1199    0.3103 O   0  0  0  0  0  0  0  0  0  0  0  0
    1.1412    0.1062   -0.7255 H   0  0  0  0  0  0  0  0  0  0  0  0
   -2.2256    3.3204    0.6468 H   0  0  0  0  0  0  0  0  0  0  0  0
   -1.7562    0.5196    2.6460 H   0  0  0  0  0  0  0  0  0  0  0  0
   -2.4915    2.7445    0.1979 H   0  0  0  0  0  0  0  0  0  0  0  0
    0.4999    2.4590   -0.0612 H   0  0  0  0  0  0  0  0  0  0  0  0
    1.4563    1.9561    1.3579 H   0  0  0  0  0  0  0  0  0  0  0  0
  1  3  1  0
  1  4  2  0
  1  9  1  0
  2  3  1  0
  2  5  1  0
  2 11  1  0
  2 12  1  0
  3  6  2  0
  5  7  1  0
  8 10  1  0
M  END
