OCC(=O)C=O.[H][H]_3
     RDKit          3D

 12 10  0  0  0  0  0  0  0  0999 V2000
   -0.9165    0.9271    2.0185 C   0  0  0  0  0  0  0  0  0  0  0  0
    0.9158    1.6025    0.3669 C   0  0  0  0  0  0  0  0  0  0  0  0
    0.0704    1.9167    1.5681 C   0  0  0  0  0  0  0  0  0  0  0  0
   -1.0846   -0.1355    1.4903 O   0  0  0  0  0  0  0  0  0  0  0  0
    1.2359    0.2383    0.2548 O   0  0  0  0  0  0  0  0  0  0  0  0
    0.1867    2.9754    2.1329 O   0  0  0  0  0  0  0  0  0  0  0  0
    0.4653   -0.2965    0.5388 H   0  0  0  0  0  0  0  0  0  0  0  0
   -2.4051    2.7718    0.0205 H   0  0  0  0  0  0  0  0  0  0  0  0
   -1.5355    1.1588    2.8766 H   0  0  0  0  0  0  0  0  0  0  0  0
   -2.5363    2.0708   -0.2881 H   0  0  0  0  0  0  0  0  0  0  0  0
    0.4075    1.9160   -0.5550 H   0  0  0  0  0  0  0  0  0  0  0  0
    1.8668    2.1483    0.4306 H   0  0  0  0  0  0  0  0  0  0  0  0
  1  3  1  0
  1  4  2  0
  1  9  1  0
  2  3  1  0
  2  5  1  0
  2 11  1  0
  2 12  1  0
  3  6  2  0
  5  7  1  0
  8 10  1  0
M  END
