OCC(=O)C=O.[H][H]_15
     RDKit          3D

 12 10  0  0  0  0  0  0  0  0999 V2000
   -0.7753    1.4566    2.5368 C   0  0  0  0  0  0  0  0  0  0  0  0
    0.8691    1.5094    0.5862 C   0  0  0  0  0  0  0  0  0  0  0  0
   -0.2518    0.8394    1.3149 C   0  0  0  0  0  0  0  0  0  0  0  0
   -0.3494    2.4840    2.9847 O   0  0  0  0  0  0  0  0  0  0  0  0
    0.8026    1.2138   -0.7827 O   0  0  0  0  0  0  0  0  0  0  0  0
   -0.6829   -0.1979    0.8846 O   0  0  0  0  0  0  0  0  0  0  0  0
    0.3532    0.3477   -0.9040 H   0  0  0  0  0  0  0  0  0  0  0  0
   -2.2806    2.1223   -0.4341 H   0  0  0  0  0  0  0  0  0  0  0  0
   -1.5867    0.9743    3.0674 H   0  0  0  0  0  0  0  0  0  0  0  0
   -2.0856    2.7774   -0.0645 H   0  0  0  0  0  0  0  0  0  0  0  0
    0.8168    2.6014    0.6995 H   0  0  0  0  0  0  0  0  0  0  0  0
    1.8410    1.1653    0.9658 H   0  0  0  0  0  0  0  0  0  0  0  0
  1  3  1  0
  1  4  2  0
  1  9  1  0
  2  3  1  0
  2  5  1  0
  2 11  1  0
  2 12  1  0
  3  6  2  0
  5  7  1  0
  8 10  1  0
M  END
