OCC(=O)C=O.[H][H]_14
     RDKit          3D

 12 10  0  0  0  0  0  0  0  0999 V2000
   -0.5158    1.2490    2.7387 C   0  0  0  0  0  0  0  0  0  0  0  0
    0.7939    1.6425    0.5779 C   0  0  0  0  0  0  0  0  0  0  0  0
    0.6221    1.8737    2.0521 C   0  0  0  0  0  0  0  0  0  0  0  0
   -1.3350    0.5684    2.1889 O   0  0  0  0  0  0  0  0  0  0  0  0
   -0.4259    1.5324   -0.1120 O   0  0  0  0  0  0  0  0  0  0  0  0
    1.4209    2.5411    2.6602 O   0  0  0  0  0  0  0  0  0  0  0  0
   -1.0681    1.0482    0.4480 H   0  0  0  0  0  0  0  0  0  0  0  0
   -2.3132    1.4534   -2.1281 H   0  0  0  0  0  0  0  0  0  0  0  0
   -0.6341    1.4054    3.8038 H   0  0  0  0  0  0  0  0  0  0  0  0
   -2.5895    0.7630   -1.9029 H   0  0  0  0  0  0  0  0  0  0  0  0
    1.3371    2.4864    0.1315 H   0  0  0  0  0  0  0  0  0  0  0  0
    1.3782    0.7301    0.3967 H   0  0  0  0  0  0  0  0  0  0  0  0
  1  3  1  0
  1  4  2  0
  1  9  1  0
  2  3  1  0
  2  5  1  0
  2 11  1  0
  2 12  1  0
  3  6  2  0
  5  7  1  0
  8 10  1  0
M  END
