OCC(=O)C=O.[H][H]_2
     RDKit          3D

 12 10  0  0  0  0  0  0  0  0999 V2000
   -0.8680    0.8350    2.0357 C   0  0  0  0  0  0  0  0  0  0  0  0
    0.8666    1.5557    0.3005 C   0  0  0  0  0  0  0  0  0  0  0  0
   -0.0610    1.9019    1.4301 C   0  0  0  0  0  0  0  0  0  0  0  0
   -0.8206   -0.3130    1.6946 O   0  0  0  0  0  0  0  0  0  0  0  0
    1.4351    0.2757    0.4219 O   0  0  0  0  0  0  0  0  0  0  0  0
   -0.1568    3.0417    1.8108 O   0  0  0  0  0  0  0  0  0  0  0  0
    0.7661   -0.3389    0.7895 H   0  0  0  0  0  0  0  0  0  0  0  0
   -2.4507    2.3545   -0.2419 H   0  0  0  0  0  0  0  0  0  0  0  0
   -1.5497    1.0865    2.8388 H   0  0  0  0  0  0  0  0  0  0  0  0
   -2.5285    3.0117    0.1651 H   0  0  0  0  0  0  0  0  0  0  0  0
    0.3395    1.6108   -0.6617 H   0  0  0  0  0  0  0  0  0  0  0  0
    1.6985    2.2721    0.2718 H   0  0  0  0  0  0  0  0  0  0  0  0
  1  3  1  0
  1  4  2  0
  1  9  1  0
  2  3  1  0
  2  5  1  0
  2 11  1  0
  2 12  1  0
  3  6  2  0
  5  7  1  0
  8 10  1  0
M  END
