OCC(=O)C=O.[H][H]_11
     RDKit          3D

 12 10  0  0  0  0  0  0  0  0999 V2000
   -0.6108    1.5337    2.7738 C   0  0  0  0  0  0  0  0  0  0  0  0
    0.5247    1.6168    0.4842 C   0  0  0  0  0  0  0  0  0  0  0  0
    0.6234    1.6226    1.9830 C   0  0  0  0  0  0  0  0  0  0  0  0
   -1.7077    1.4750    2.2944 O   0  0  0  0  0  0  0  0  0  0  0  0
   -0.6251    2.2661    0.0017 O   0  0  0  0  0  0  0  0  0  0  0  0
    1.7008    1.6738    2.5214 O   0  0  0  0  0  0  0  0  0  0  0  0
   -1.3759    2.0772    0.6027 H   0  0  0  0  0  0  0  0  0  0  0  0
   -1.2881    0.2134   -2.0113 H   0  0  0  0  0  0  0  0  0  0  0  0
   -0.5399    1.5213    3.8544 H   0  0  0  0  0  0  0  0  0  0  0  0
   -1.9484    0.5676   -1.8060 H   0  0  0  0  0  0  0  0  0  0  0  0
    1.3896    2.1395    0.0540 H   0  0  0  0  0  0  0  0  0  0  0  0
    0.5278    0.5868    0.1025 H   0  0  0  0  0  0  0  0  0  0  0  0
  1  3  1  0
  1  4  2  0
  1  9  1  0
  2  3  1  0
  2  5  1  0
  2 11  1  0
  2 12  1  0
  3  6  2  0
  5  7  1  0
  8 10  1  0
M  END
