C=C.OOC=O_5
     RDKit          3D

 12 10  0  0  0  0  0  0  0  0999 V2000
   -0.6846    2.2807    2.5092 C   0  0  0  0  0  0  0  0  0  0  0  0
   -1.9225    2.4523    2.9127 C   0  0  0  0  0  0  0  0  0  0  0  0
   -1.2232   -0.9104    0.4334 C   0  0  0  0  0  0  0  0  0  0  0  0
   -0.4633    0.1080    0.0096 O   0  0  0  0  0  0  0  0  0  0  0  0
    0.8338    0.0289    0.6454 O   0  0  0  0  0  0  0  0  0  0  0  0
   -0.8168   -1.7744    1.1568 O   0  0  0  0  0  0  0  0  0  0  0  0
    0.9137   -0.8853    0.9835 H   0  0  0  0  0  0  0  0  0  0  0  0
   -0.4270    1.5254    1.7895 H   0  0  0  0  0  0  0  0  0  0  0  0
    0.1193    2.8886    2.8813 H   0  0  0  0  0  0  0  0  0  0  0  0
   -2.2496   -0.9597    0.0900 H   0  0  0  0  0  0  0  0  0  0  0  0
   -2.7261    1.8439    2.5401 H   0  0  0  0  0  0  0  0  0  0  0  0
   -2.1812    3.2079    3.6314 H   0  0  0  0  0  0  0  0  0  0  0  0
  1  2  2  0
  1  8  1  0
  1  9  1  0
  2 11  1  0
  2 12  1  0
  3  4  1  0
  3  6  2  0
  3 10  1  0
  4  5  1  0
  5  7  1  0
M  END
