C=C.OOC=O_3
     RDKit          3D

 12 10  0  0  0  0  0  0  0  0999 V2000
   -0.6958    2.3055    2.4473 C   0  0  0  0  0  0  0  0  0  0  0  0
   -1.8964    2.3820    2.9741 C   0  0  0  0  0  0  0  0  0  0  0  0
   -1.2294   -0.8520    0.3867 C   0  0  0  0  0  0  0  0  0  0  0  0
   -0.3788    0.0962   -0.0277 O   0  0  0  0  0  0  0  0  0  0  0  0
    0.8609   -0.0233    0.7084 O   0  0  0  0  0  0  0  0  0  0  0  0
   -0.9323   -1.6960    1.1830 O   0  0  0  0  0  0  0  0  0  0  0  0
    0.8568   -0.9188    1.1014 H   0  0  0  0  0  0  0  0  0  0  0  0
   -0.4272    1.5150    1.7710 H   0  0  0  0  0  0  0  0  0  0  0  0
    0.0652    3.0303    2.6702 H   0  0  0  0  0  0  0  0  0  0  0  0
   -2.2282   -0.8615   -0.0329 H   0  0  0  0  0  0  0  0  0  0  0  0
   -2.6568    1.6562    2.7510 H   0  0  0  0  0  0  0  0  0  0  0  0
   -2.1656    3.1724    3.6503 H   0  0  0  0  0  0  0  0  0  0  0  0
  1  2  2  0
  1  8  1  0
  1  9  1  0
  2 11  1  0
  2 12  1  0
  3  4  1  0
  3  6  2  0
  3 10  1  0
  4  5  1  0
  5  7  1  0
M  END
