C=C.OOC=O_2
     RDKit          3D

 12 10  0  0  0  0  0  0  0  0999 V2000
   -0.7977    1.8738    2.9537 C   0  0  0  0  0  0  0  0  0  0  0  0
   -1.9284    2.5098    2.7495 C   0  0  0  0  0  0  0  0  0  0  0  0
   -1.1521   -0.7840    0.3051 C   0  0  0  0  0  0  0  0  0  0  0  0
   -0.2822   -0.9852    1.3038 O   0  0  0  0  0  0  0  0  0  0  0  0
    0.9169   -0.2164    1.0514 O   0  0  0  0  0  0  0  0  0  0  0  0
   -0.8969   -0.1274   -0.6636 O   0  0  0  0  0  0  0  0  0  0  0  0
    0.8918    0.0205    0.1030 H   0  0  0  0  0  0  0  0  0  0  0  0
   -0.1541    2.1183    3.7784 H   0  0  0  0  0  0  0  0  0  0  0  0
   -0.4715    1.0824    2.3043 H   0  0  0  0  0  0  0  0  0  0  0  0
   -2.1270   -1.2516    0.3743 H   0  0  0  0  0  0  0  0  0  0  0  0
   -2.2551    3.3008    3.3991 H   0  0  0  0  0  0  0  0  0  0  0  0
   -2.5712    2.2650    1.9238 H   0  0  0  0  0  0  0  0  0  0  0  0
  1  2  2  0
  1  8  1  0
  1  9  1  0
  2 11  1  0
  2 12  1  0
  3  4  1  0
  3  6  2  0
  3 10  1  0
  4  5  1  0
  5  7  1  0
M  END
