C=C.OOC=O_15
     RDKit          3D

 12 10  0  0  0  0  0  0  0  0999 V2000
   -0.6519    2.5319    3.5411 C   0  0  0  0  0  0  0  0  0  0  0  0
   -1.2711    2.2129    2.4280 C   0  0  0  0  0  0  0  0  0  0  0  0
   -1.5457   -0.9969    0.1995 C   0  0  0  0  0  0  0  0  0  0  0  0
   -0.9837    0.1847   -0.0867 O   0  0  0  0  0  0  0  0  0  0  0  0
    0.3906    0.1798    0.3666 O   0  0  0  0  0  0  0  0  0  0  0  0
   -0.9420   -1.9080    0.6894 O   0  0  0  0  0  0  0  0  0  0  0  0
    0.6137   -0.7547    0.5477 H   0  0  0  0  0  0  0  0  0  0  0  0
    0.3115    2.1240    3.7864 H   0  0  0  0  0  0  0  0  0  0  0  0
   -1.0833    3.2142    4.2503 H   0  0  0  0  0  0  0  0  0  0  0  0
   -2.5935   -1.1356   -0.0386 H   0  0  0  0  0  0  0  0  0  0  0  0
   -0.8386    1.5317    1.7179 H   0  0  0  0  0  0  0  0  0  0  0  0
   -2.2336    2.6217    2.1810 H   0  0  0  0  0  0  0  0  0  0  0  0
  1  2  2  0
  1  8  1  0
  1  9  1  0
  2 11  1  0
  2 12  1  0
  3  4  1  0
  3  6  2  0
  3 10  1  0
  4  5  1  0
  5  7  1  0
M  END
