C=C.OOC=O_12
     RDKit          3D

 12 10  0  0  0  0  0  0  0  0999 V2000
   -0.7157    2.4562    2.6504 C   0  0  0  0  0  0  0  0  0  0  0  0
   -1.9082    2.8754    3.0061 C   0  0  0  0  0  0  0  0  0  0  0  0
   -1.1332   -1.3519    0.2093 C   0  0  0  0  0  0  0  0  0  0  0  0
   -0.8333   -0.0927    0.5525 O   0  0  0  0  0  0  0  0  0  0  0  0
    0.5553   -0.0254    0.9579 O   0  0  0  0  0  0  0  0  0  0  0  0
   -0.3327   -2.2427    0.2210 O   0  0  0  0  0  0  0  0  0  0  0  0
    0.9366   -0.9067    0.7742 H   0  0  0  0  0  0  0  0  0  0  0  0
   -0.5864    1.6029    2.0100 H   0  0  0  0  0  0  0  0  0  0  0  0
    0.1784    2.9496    2.9841 H   0  0  0  0  0  0  0  0  0  0  0  0
   -2.1487   -1.5693   -0.0998 H   0  0  0  0  0  0  0  0  0  0  0  0
   -2.8019    2.3814    2.6716 H   0  0  0  0  0  0  0  0  0  0  0  0
   -2.0376    3.7291    3.6455 H   0  0  0  0  0  0  0  0  0  0  0  0
  1  2  2  0
  1  8  1  0
  1  9  1  0
  2 11  1  0
  2 12  1  0
  3  4  1  0
  3  6  2  0
  3 10  1  0
  4  5  1  0
  5  7  1  0
M  END
