C=C.OOC=O_16
     RDKit          3D

 12 10  0  0  0  0  0  0  0  0999 V2000
   -1.3073    2.4430    3.7737 C   0  0  0  0  0  0  0  0  0  0  0  0
   -0.8901    2.5614    2.5341 C   0  0  0  0  0  0  0  0  0  0  0  0
   -1.0053   -1.5142    0.3477 C   0  0  0  0  0  0  0  0  0  0  0  0
   -0.8179   -0.3363    0.9566 O   0  0  0  0  0  0  0  0  0  0  0  0
   -0.2120    0.5930    0.0255 O   0  0  0  0  0  0  0  0  0  0  0  0
   -0.6871   -1.7228   -0.7881 O   0  0  0  0  0  0  0  0  0  0  0  0
   -0.0490    0.0894   -0.7964 H   0  0  0  0  0  0  0  0  0  0  0  0
   -1.4218    3.2985    4.4137 H   0  0  0  0  0  0  0  0  0  0  0  0
   -1.5504    1.4858    4.1972 H   0  0  0  0  0  0  0  0  0  0  0  0
   -1.4640   -2.3154    0.9148 H   0  0  0  0  0  0  0  0  0  0  0  0
   -0.6469    3.5181    2.1098 H   0  0  0  0  0  0  0  0  0  0  0  0
   -0.7757    1.7056    1.8941 H   0  0  0  0  0  0  0  0  0  0  0  0
  1  2  2  0
  1  8  1  0
  1  9  1  0
  2 11  1  0
  2 12  1  0
  3  4  1  0
  3  6  2  0
  3 10  1  0
  4  5  1  0
  5  7  1  0
M  END
