C=C.OOC=O_11
     RDKit          3D

 12 10  0  0  0  0  0  0  0  0999 V2000
   -1.2868    2.5106    3.6703 C   0  0  0  0  0  0  0  0  0  0  0  0
   -0.7558    2.5597    2.4702 C   0  0  0  0  0  0  0  0  0  0  0  0
   -1.1390   -1.5035    0.4666 C   0  0  0  0  0  0  0  0  0  0  0  0
   -0.6243   -0.4198    1.0618 O   0  0  0  0  0  0  0  0  0  0  0  0
   -0.0894    0.4709    0.0533 O   0  0  0  0  0  0  0  0  0  0  0  0
   -1.1036   -1.6799   -0.7176 O   0  0  0  0  0  0  0  0  0  0  0  0
   -0.1450   -0.0122   -0.7949 H   0  0  0  0  0  0  0  0  0  0  0  0
   -1.6247    1.5850    4.0994 H   0  0  0  0  0  0  0  0  0  0  0  0
   -1.4035    3.3936    4.2714 H   0  0  0  0  0  0  0  0  0  0  0  0
   -1.6015   -2.2585    1.0912 H   0  0  0  0  0  0  0  0  0  0  0  0
   -0.6378    1.6759    1.8701 H   0  0  0  0  0  0  0  0  0  0  0  0
   -0.4162    3.4843    2.0410 H   0  0  0  0  0  0  0  0  0  0  0  0
  1  2  2  0
  1  8  1  0
  1  9  1  0
  2 11  1  0
  2 12  1  0
  3  4  1  0
  3  6  2  0
  3 10  1  0
  4  5  1  0
  5  7  1  0
M  END
