C=C.OOC=O_14
     RDKit          3D

 12 10  0  0  0  0  0  0  0  0999 V2000
   -1.3502    2.1828    2.0974 C   0  0  0  0  0  0  0  0  0  0  0  0
   -1.6323    2.6569    3.2890 C   0  0  0  0  0  0  0  0  0  0  0  0
   -0.9587   -1.1747    0.5656 C   0  0  0  0  0  0  0  0  0  0  0  0
   -0.1122   -0.8444    1.5499 O   0  0  0  0  0  0  0  0  0  0  0  0
    0.9160    0.0239    1.0199 O   0  0  0  0  0  0  0  0  0  0  0  0
   -0.7971   -0.8468   -0.5750 O   0  0  0  0  0  0  0  0  0  0  0  0
    0.8921   -0.0896    0.0489 H   0  0  0  0  0  0  0  0  0  0  0  0
   -1.7375    2.6366    1.2038 H   0  0  0  0  0  0  0  0  0  0  0  0
   -0.7208    1.3216    1.9677 H   0  0  0  0  0  0  0  0  0  0  0  0
   -1.8211   -1.7812    0.8152 H   0  0  0  0  0  0  0  0  0  0  0  0
   -2.2616    3.5182    3.4183 H   0  0  0  0  0  0  0  0  0  0  0  0
   -1.2439    2.2028    4.1820 H   0  0  0  0  0  0  0  0  0  0  0  0
  1  2  2  0
  1  8  1  0
  1  9  1  0
  2 11  1  0
  2 12  1  0
  3  4  1  0
  3  6  2  0
  3 10  1  0
  4  5  1  0
  5  7  1  0
M  END
