C=C.OOC=O_1
     RDKit          3D

 12 10  0  0  0  0  0  0  0  0999 V2000
   -1.2467    1.9153    3.5840 C   0  0  0  0  0  0  0  0  0  0  0  0
   -1.1166    2.3335    2.3459 C   0  0  0  0  0  0  0  0  0  0  0  0
   -1.0938   -0.9895    0.6100 C   0  0  0  0  0  0  0  0  0  0  0  0
   -1.3025    0.1039   -0.1351 O   0  0  0  0  0  0  0  0  0  0  0  0
   -0.0390    0.7692   -0.3666 O   0  0  0  0  0  0  0  0  0  0  0  0
   -0.0030   -1.3618    0.9359 O   0  0  0  0  0  0  0  0  0  0  0  0
    0.6547    0.1091   -0.1682 H   0  0  0  0  0  0  0  0  0  0  0  0
   -1.4321    2.5981    4.3927 H   0  0  0  0  0  0  0  0  0  0  0  0
   -1.1718    0.8737    3.8375 H   0  0  0  0  0  0  0  0  0  0  0  0
   -1.9550   -1.5704    0.9178 H   0  0  0  0  0  0  0  0  0  0  0  0
   -1.1903    3.3746    2.0916 H   0  0  0  0  0  0  0  0  0  0  0  0
   -0.9316    1.6504    1.5374 H   0  0  0  0  0  0  0  0  0  0  0  0
  1  2  2  0
  1  8  1  0
  1  9  1  0
  2 11  1  0
  2 12  1  0
  3  4  1  0
  3  6  2  0
  3 10  1  0
  4  5  1  0
  5  7  1  0
M  END
