C=C.OOC=O_10
     RDKit          3D

 12 10  0  0  0  0  0  0  0  0999 V2000
   -0.7198    2.4037    3.5602 C   0  0  0  0  0  0  0  0  0  0  0  0
   -1.2374    2.2554    2.3625 C   0  0  0  0  0  0  0  0  0  0  0  0
   -1.5215   -0.9845    0.3013 C   0  0  0  0  0  0  0  0  0  0  0  0
   -1.0296    0.1803   -0.1410 O   0  0  0  0  0  0  0  0  0  0  0  0
    0.3702    0.2703    0.2139 O   0  0  0  0  0  0  0  0  0  0  0  0
   -0.8482   -1.8203    0.8331 O   0  0  0  0  0  0  0  0  0  0  0  0
    0.6481   -0.6359    0.4544 H   0  0  0  0  0  0  0  0  0  0  0  0
    0.1315    1.8316    3.8805 H   0  0  0  0  0  0  0  0  0  0  0  0
   -1.1263    3.1034    4.2672 H   0  0  0  0  0  0  0  0  0  0  0  0
   -2.5766   -1.1824    0.1547 H   0  0  0  0  0  0  0  0  0  0  0  0
   -0.8301    1.5564    1.6552 H   0  0  0  0  0  0  0  0  0  0  0  0
   -2.0878    2.8279    2.0408 H   0  0  0  0  0  0  0  0  0  0  0  0
  1  2  2  0
  1  8  1  0
  1  9  1  0
  2 11  1  0
  2 12  1  0
  3  4  1  0
  3  6  2  0
  3 10  1  0
  4  5  1  0
  5  7  1  0
M  END
