C=C.OOC=O_9
     RDKit          3D

 12 10  0  0  0  0  0  0  0  0999 V2000
   -0.8197    2.3580    3.6180 C   0  0  0  0  0  0  0  0  0  0  0  0
   -1.4600    2.1229    2.4959 C   0  0  0  0  0  0  0  0  0  0  0  0
   -1.2576   -1.0645    0.2820 C   0  0  0  0  0  0  0  0  0  0  0  0
   -1.1492    0.2091   -0.1183 O   0  0  0  0  0  0  0  0  0  0  0  0
    0.2253    0.6376    0.0270 O   0  0  0  0  0  0  0  0  0  0  0  0
   -0.3200   -1.7247    0.6280 O   0  0  0  0  0  0  0  0  0  0  0  0
    0.7525   -0.1771    0.1483 H   0  0  0  0  0  0  0  0  0  0  0  0
   -1.2661    2.9266    4.4129 H   0  0  0  0  0  0  0  0  0  0  0  0
    0.1766    1.9920    3.7851 H   0  0  0  0  0  0  0  0  0  0  0  0
   -2.2407   -1.5199    0.2768 H   0  0  0  0  0  0  0  0  0  0  0  0
   -2.4555    2.4902    2.3272 H   0  0  0  0  0  0  0  0  0  0  0  0
   -1.0131    1.5557    1.7001 H   0  0  0  0  0  0  0  0  0  0  0  0
  1  2  2  0
  1  8  1  0
  1  9  1  0
  2 11  1  0
  2 12  1  0
  3  4  1  0
  3  6  2  0
  3 10  1  0
  4  5  1  0
  5  7  1  0
M  END
