C=C.OOC=O
     RDKit          3D

 12 10  0  0  0  0  0  0  0  0999 V2000
   -0.6838    1.9388    3.1349 C   0  0  0  0  0  0  0  0  0  0  0  0
   -1.7663    2.3020    2.4510 C   0  0  0  0  0  0  0  0  0  0  0  0
   -1.3767   -0.8006    0.6073 C   0  0  0  0  0  0  0  0  0  0  0  0
   -0.6169    0.1390   -0.0887 O   0  0  0  0  0  0  0  0  0  0  0  0
    0.6193    0.4715    0.3131 O   0  0  0  0  0  0  0  0  0  0  0  0
   -0.9207   -1.3557    1.6416 O   0  0  0  0  0  0  0  0  0  0  0  0
    1.1837   -0.3156    0.1000 H   0  0  0  0  0  0  0  0  0  0  0  0
   -0.6447    0.9699    3.6219 H   0  0  0  0  0  0  0  0  0  0  0  0
    0.1672    2.6081    3.2070 H   0  0  0  0  0  0  0  0  0  0  0  0
   -2.3682   -1.0520    0.2569 H   0  0  0  0  0  0  0  0  0  0  0  0
   -2.6160    1.6311    2.3764 H   0  0  0  0  0  0  0  0  0  0  0  0
   -1.8044    3.2695    1.9614 H   0  0  0  0  0  0  0  0  0  0  0  0
  1  2  2  0
  1  8  1  0
  1  9  1  0
  2 11  1  0
  2 12  1  0
  3  4  1  0
  3  6  2  0
  3 10  1  0
  4  5  1  0
  5  7  1  0
M  END
