C=C.OOC=O_17
     RDKit          3D

 12 10  0  0  0  0  0  0  0  0999 V2000
   -1.2596    2.1268    2.1673 C   0  0  0  0  0  0  0  0  0  0  0  0
   -1.4674    2.7508    3.3038 C   0  0  0  0  0  0  0  0  0  0  0  0
   -1.0544   -0.8811    0.0969 C   0  0  0  0  0  0  0  0  0  0  0  0
   -0.8455   -1.0628    1.4076 O   0  0  0  0  0  0  0  0  0  0  0  0
    0.5031   -0.6550    1.7346 O   0  0  0  0  0  0  0  0  0  0  0  0
   -0.2001   -0.5138   -0.6580 O   0  0  0  0  0  0  0  0  0  0  0  0
    0.9890   -0.6212    0.8865 H   0  0  0  0  0  0  0  0  0  0  0  0
   -0.8619    1.1290    2.1365 H   0  0  0  0  0  0  0  0  0  0  0  0
   -1.4774    2.5890    1.2221 H   0  0  0  0  0  0  0  0  0  0  0  0
   -2.0411   -1.0925   -0.2974 H   0  0  0  0  0  0  0  0  0  0  0  0
   -1.2479    2.2879    4.2484 H   0  0  0  0  0  0  0  0  0  0  0  0
   -1.8643    3.7488    3.3344 H   0  0  0  0  0  0  0  0  0  0  0  0
  1  2  2  0
  1  8  1  0
  1  9  1  0
  2 11  1  0
  2 12  1  0
  3  4  1  0
  3  6  2  0
  3 10  1  0
  4  5  1  0
  5  7  1  0
M  END
