C=C.OOC=O_13
     RDKit          3D

 12 10  0  0  0  0  0  0  0  0999 V2000
   -0.7904    2.2342    2.9573 C   0  0  0  0  0  0  0  0  0  0  0  0
   -1.9316    2.8801    3.0277 C   0  0  0  0  0  0  0  0  0  0  0  0
   -1.0615   -1.1793   -0.0703 C   0  0  0  0  0  0  0  0  0  0  0  0
   -0.7905   -0.0176    0.5383 O   0  0  0  0  0  0  0  0  0  0  0  0
    0.5539   -0.0611    1.0747 O   0  0  0  0  0  0  0  0  0  0  0  0
   -0.2684   -2.0723   -0.1611 O   0  0  0  0  0  0  0  0  0  0  0  0
    0.9491   -0.8959    0.7540 H   0  0  0  0  0  0  0  0  0  0  0  0
    0.0106    2.4278    3.6467 H   0  0  0  0  0  0  0  0  0  0  0  0
   -0.6121    1.4860    2.2067 H   0  0  0  0  0  0  0  0  0  0  0  0
   -2.0445   -1.3106   -0.5067 H   0  0  0  0  0  0  0  0  0  0  0  0
   -2.1102    3.6284    3.7780 H   0  0  0  0  0  0  0  0  0  0  0  0
   -2.7320    2.6864    2.3374 H   0  0  0  0  0  0  0  0  0  0  0  0
  1  2  2  0
  1  8  1  0
  1  9  1  0
  2 11  1  0
  2 12  1  0
  3  4  1  0
  3  6  2  0
  3 10  1  0
  4  5  1  0
  5  7  1  0
M  END
