C=C.OOC=O_18
     RDKit          3D

 12 10  0  0  0  0  0  0  0  0999 V2000
   -0.8557    2.6210    3.5612 C   0  0  0  0  0  0  0  0  0  0  0  0
   -1.3258    1.8418    2.6147 C   0  0  0  0  0  0  0  0  0  0  0  0
   -1.2975   -1.0577    0.2973 C   0  0  0  0  0  0  0  0  0  0  0  0
   -0.1937   -0.7950    1.0092 O   0  0  0  0  0  0  0  0  0  0  0  0
    0.5453    0.2684    0.3645 O   0  0  0  0  0  0  0  0  0  0  0  0
   -1.5470   -0.5241   -0.7455 O   0  0  0  0  0  0  0  0  0  0  0  0
    0.1967    0.3266   -0.5473 H   0  0  0  0  0  0  0  0  0  0  0  0
   -1.4995    3.2614    4.1355 H   0  0  0  0  0  0  0  0  0  0  0  0
    0.1918    2.6490    3.7987 H   0  0  0  0  0  0  0  0  0  0  0  0
   -1.9870   -1.8011    0.6792 H   0  0  0  0  0  0  0  0  0  0  0  0
   -2.3730    1.8138    2.3757 H   0  0  0  0  0  0  0  0  0  0  0  0
   -0.6821    1.2020    2.0395 H   0  0  0  0  0  0  0  0  0  0  0  0
  1  2  2  0
  1  8  1  0
  1  9  1  0
  2 11  1  0
  2 12  1  0
  3  4  1  0
  3  6  2  0
  3 10  1  0
  4  5  1  0
  5  7  1  0
M  END
