OC(=C=C)OO.[H][H]_0
     RDKit          3D

 12 10  0  0  0  0  0  0  0  0999 V2000
   -1.1633   -0.3121    0.4193 C   0  0  0  0  0  0  0  0  0  0  0  0
   -0.6824    0.5903    1.2251 C   0  0  0  0  0  0  0  0  0  0  0  0
   -0.1383    1.5298    2.0201 C   0  0  0  0  0  0  0  0  0  0  0  0
    0.8151    2.3788    1.5261 O   0  0  0  0  0  0  0  0  0  0  0  0
    1.0416    2.1441    0.0974 O   0  0  0  0  0  0  0  0  0  0  0  0
   -0.5303    1.6422    3.3214 O   0  0  0  0  0  0  0  0  0  0  0  0
    0.8205    2.9976   -0.3101 H   0  0  0  0  0  0  0  0  0  0  0  0
   -0.6873   -0.5143   -0.5197 H   0  0  0  0  0  0  0  0  0  0  0  0
   -2.0233   -0.8931    0.6868 H   0  0  0  0  0  0  0  0  0  0  0  0
    2.3260    0.1722    0.9213 H   0  0  0  0  0  0  0  0  0  0  0  0
   -0.0143    2.3639    3.7328 H   0  0  0  0  0  0  0  0  0  0  0  0
    2.1804   -0.5909    0.9269 H   0  0  0  0  0  0  0  0  0  0  0  0
  1  2  2  0
  1  8  1  0
  1  9  1  0
  2  3  2  0
  3  4  1  0
  3  6  1  0
  4  5  1  0
  5  7  1  0
  6 11  1  0
 10 12  1  0
M  END
