OC(=C=C)OO.[H][H]_6
     RDKit          3D

 12 10  0  0  0  0  0  0  0  0999 V2000
    0.0263   -0.5121    0.0088 C   0  0  0  0  0  0  0  0  0  0  0  0
    0.3476    0.5469    0.6945 C   0  0  0  0  0  0  0  0  0  0  0  0
    0.6716    1.6117    1.4508 C   0  0  0  0  0  0  0  0  0  0  0  0
    1.0549    1.4376    2.7533 O   0  0  0  0  0  0  0  0  0  0  0  0
    1.1089    0.0154    3.1016 O   0  0  0  0  0  0  0  0  0  0  0  0
    0.6183    2.8697    0.9273 O   0  0  0  0  0  0  0  0  0  0  0  0
    2.0331   -0.1175    3.3693 H   0  0  0  0  0  0  0  0  0  0  0  0
   -0.1191   -1.4550    0.4971 H   0  0  0  0  0  0  0  0  0  0  0  0
   -0.1283   -0.4612   -1.0505 H   0  0  0  0  0  0  0  0  0  0  0  0
   -2.1239    2.3710    0.4641 H   0  0  0  0  0  0  0  0  0  0  0  0
    0.8715    3.5017    1.6294 H   0  0  0  0  0  0  0  0  0  0  0  0
   -2.4165    1.7005    0.2019 H   0  0  0  0  0  0  0  0  0  0  0  0
  1  2  2  0
  1  8  1  0
  1  9  1  0
  2  3  2  0
  3  4  1  0
  3  6  1  0
  4  5  1  0
  5  7  1  0
  6 11  1  0
 10 12  1  0
M  END
