OC(=C=C)OO.[H][H]_8
     RDKit          3D

 12 10  0  0  0  0  0  0  0  0999 V2000
   -0.5904   -0.6525    0.5470 C   0  0  0  0  0  0  0  0  0  0  0  0
   -0.2339    0.4097    1.2098 C   0  0  0  0  0  0  0  0  0  0  0  0
    0.1695    1.4763    1.9243 C   0  0  0  0  0  0  0  0  0  0  0  0
    1.2710    1.3848    2.7319 O   0  0  0  0  0  0  0  0  0  0  0  0
    1.9007    0.0668    2.6175 O   0  0  0  0  0  0  0  0  0  0  0  0
   -0.5141    2.6539    1.8493 O   0  0  0  0  0  0  0  0  0  0  0  0
    2.7994    0.2709    2.3106 H   0  0  0  0  0  0  0  0  0  0  0  0
   -0.1429   -1.6034    0.7582 H   0  0  0  0  0  0  0  0  0  0  0  0
   -1.3534   -0.6076   -0.2044 H   0  0  0  0  0  0  0  0  0  0  0  0
   -0.5846    2.1182   -1.3251 H   0  0  0  0  0  0  0  0  0  0  0  0
   -0.0802    3.2953    2.4466 H   0  0  0  0  0  0  0  0  0  0  0  0
   -0.6968    2.6961   -0.8180 H   0  0  0  0  0  0  0  0  0  0  0  0
  1  2  2  0
  1  8  1  0
  1  9  1  0
  2  3  2  0
  3  4  1  0
  3  6  1  0
  4  5  1  0
  5  7  1  0
  6 11  1  0
 10 12  1  0
M  END
