OC(=C=C)OO.[H][H]_4
     RDKit          3D

 12 10  0  0  0  0  0  0  0  0999 V2000
   -0.3228   -0.5780    0.3614 C   0  0  0  0  0  0  0  0  0  0  0  0
    0.0208    0.4790    1.0393 C   0  0  0  0  0  0  0  0  0  0  0  0
    0.4200    1.5423    1.7609 C   0  0  0  0  0  0  0  0  0  0  0  0
    1.3274    1.3833    2.7734 O   0  0  0  0  0  0  0  0  0  0  0  0
    1.6822   -0.0277    2.9469 O   0  0  0  0  0  0  0  0  0  0  0  0
   -0.0742    2.7840    1.4892 O   0  0  0  0  0  0  0  0  0  0  0  0
    1.4243   -0.2151    3.8644 H   0  0  0  0  0  0  0  0  0  0  0  0
   -1.1719   -0.5664   -0.2925 H   0  0  0  0  0  0  0  0  0  0  0  0
    0.2519   -1.4804    0.4291 H   0  0  0  0  0  0  0  0  0  0  0  0
   -0.8932    2.6712   -0.9669 H   0  0  0  0  0  0  0  0  0  0  0  0
    0.3440    3.4183    2.1050 H   0  0  0  0  0  0  0  0  0  0  0  0
   -1.0642    2.0980   -1.4627 H   0  0  0  0  0  0  0  0  0  0  0  0
  1  2  2  0
  1  8  1  0
  1  9  1  0
  2  3  2  0
  3  4  1  0
  3  6  1  0
  4  5  1  0
  5  7  1  0
  6 11  1  0
 10 12  1  0
M  END
