OC(=C=C)OO.[H][H]_11
     RDKit          3D

 12 10  0  0  0  0  0  0  0  0999 V2000
   -1.1410   -0.1374    0.5538 C   0  0  0  0  0  0  0  0  0  0  0  0
   -0.7283    0.6653    1.4920 C   0  0  0  0  0  0  0  0  0  0  0  0
   -0.2765    1.5196    2.4284 C   0  0  0  0  0  0  0  0  0  0  0  0
    0.8448    2.2687    2.1933 O   0  0  0  0  0  0  0  0  0  0  0  0
    1.4403    1.9350    0.8971 O   0  0  0  0  0  0  0  0  0  0  0  0
   -0.9325    1.6464    3.6173 O   0  0  0  0  0  0  0  0  0  0  0  0
    2.3325    1.6298    1.1302 H   0  0  0  0  0  0  0  0  0  0  0  0
   -0.8898    0.0454   -0.4720 H   0  0  0  0  0  0  0  0  0  0  0  0
   -1.7541   -0.9868    0.7806 H   0  0  0  0  0  0  0  0  0  0  0  0
    1.6903    0.6672   -1.4758 H   0  0  0  0  0  0  0  0  0  0  0  0
   -0.4652    2.3192    4.1516 H   0  0  0  0  0  0  0  0  0  0  0  0
    1.8237   -0.0638   -1.2490 H   0  0  0  0  0  0  0  0  0  0  0  0
  1  2  2  0
  1  8  1  0
  1  9  1  0
  2  3  2  0
  3  4  1  0
  3  6  1  0
  4  5  1  0
  5  7  1  0
  6 11  1  0
 10 12  1  0
M  END
