OC(=C=C)OO.[H][H]_3
     RDKit          3D

 12 10  0  0  0  0  0  0  0  0999 V2000
    0.0394   -0.5336   -0.0102 C   0  0  0  0  0  0  0  0  0  0  0  0
    0.3888    0.5320    0.6511 C   0  0  0  0  0  0  0  0  0  0  0  0
    0.7805    1.6014    1.3678 C   0  0  0  0  0  0  0  0  0  0  0  0
    1.4197    1.4283    2.5658 O   0  0  0  0  0  0  0  0  0  0  0  0
    1.5137    0.0079    2.9128 O   0  0  0  0  0  0  0  0  0  0  0  0
    0.5448    2.8631    0.9069 O   0  0  0  0  0  0  0  0  0  0  0  0
    1.0418   -0.0502    3.7599 H   0  0  0  0  0  0  0  0  0  0  0  0
    0.4092   -1.4985    0.2747 H   0  0  0  0  0  0  0  0  0  0  0  0
   -0.6064   -0.4703   -0.8633 H   0  0  0  0  0  0  0  0  0  0  0  0
   -2.0698    2.4072    0.4227 H   0  0  0  0  0  0  0  0  0  0  0  0
    0.9141    3.4965    1.5541 H   0  0  0  0  0  0  0  0  0  0  0  0
   -2.4317    1.7246    0.5051 H   0  0  0  0  0  0  0  0  0  0  0  0
  1  2  2  0
  1  8  1  0
  1  9  1  0
  2  3  2  0
  3  4  1  0
  3  6  1  0
  4  5  1  0
  5  7  1  0
  6 11  1  0
 10 12  1  0
M  END
