C=O.OCC=O_5
     RDKit          3D

 12 10  0  0  0  0  0  0  0  0999 V2000
   -4.4169   -1.8027    2.0377 C   0  0  0  0  0  0  0  0  0  0  0  0
   -0.3521    0.3503    0.7956 C   0  0  0  0  0  0  0  0  0  0  0  0
    0.8451    1.2113    1.0064 C   0  0  0  0  0  0  0  0  0  0  0  0
   -3.4582   -1.4044    1.4613 O   0  0  0  0  0  0  0  0  0  0  0  0
   -1.1641    0.2772    1.9485 O   0  0  0  0  0  0  0  0  0  0  0  0
    1.6700    1.4189    0.1677 O   0  0  0  0  0  0  0  0  0  0  0  0
   -1.9547   -0.2985    1.7905 H   0  0  0  0  0  0  0  0  0  0  0  0
   -5.1106   -2.4525    1.5253 H   0  0  0  0  0  0  0  0  0  0  0  0
   -4.5827   -1.5114    3.0643 H   0  0  0  0  0  0  0  0  0  0  0  0
    0.9889    1.6826    1.9709 H   0  0  0  0  0  0  0  0  0  0  0  0
   -0.9477    0.7513   -0.0352 H   0  0  0  0  0  0  0  0  0  0  0  0
   -0.0288   -0.6630    0.5225 H   0  0  0  0  0  0  0  0  0  0  0  0
  1  4  2  0
  1  8  1  0
  1  9  1  0
  2  3  1  0
  2  5  1  0
  2 11  1  0
  2 12  1  0
  3  6  2  0
  3 10  1  0
  5  7  1  0
M  END
