C=O.OCC=O_2
     RDKit          3D

 12 10  0  0  0  0  0  0  0  0999 V2000
   -3.5466   -1.5075    2.7115 C   0  0  0  0  0  0  0  0  0  0  0  0
   -0.4709    0.7193    0.1473 C   0  0  0  0  0  0  0  0  0  0  0  0
   -0.0060    0.1963    1.4650 C   0  0  0  0  0  0  0  0  0  0  0  0
   -2.8638   -1.2644    1.7712 O   0  0  0  0  0  0  0  0  0  0  0  0
   -1.8764    0.8182    0.0496 O   0  0  0  0  0  0  0  0  0  0  0  0
    1.0963    0.3517    1.8980 O   0  0  0  0  0  0  0  0  0  0  0  0
   -2.2911    0.0959    0.5836 H   0  0  0  0  0  0  0  0  0  0  0  0
   -4.1205   -0.7177    3.1734 H   0  0  0  0  0  0  0  0  0  0  0  0
   -3.5847   -2.5181    3.0906 H   0  0  0  0  0  0  0  0  0  0  0  0
   -0.6751   -0.4179    2.0538 H   0  0  0  0  0  0  0  0  0  0  0  0
   -0.0631    1.7239   -0.0202 H   0  0  0  0  0  0  0  0  0  0  0  0
   -0.1099    0.0794   -0.6684 H   0  0  0  0  0  0  0  0  0  0  0  0
  1  4  2  0
  1  8  1  0
  1  9  1  0
  2  3  1  0
  2  5  1  0
  2 11  1  0
  2 12  1  0
  3  6  2  0
  3 10  1  0
  5  7  1  0
M  END
