C=O.OCC=O_13
     RDKit          3D

 12 10  0  0  0  0  0  0  0  0999 V2000
   -3.4847   -1.9946    2.8944 C   0  0  0  0  0  0  0  0  0  0  0  0
   -0.3018    1.2332    0.3620 C   0  0  0  0  0  0  0  0  0  0  0  0
   -0.5977    0.2258    1.4174 C   0  0  0  0  0  0  0  0  0  0  0  0
   -4.0090   -1.8454    3.9493 O   0  0  0  0  0  0  0  0  0  0  0  0
   -0.6082    0.7020   -0.8995 O   0  0  0  0  0  0  0  0  0  0  0  0
   -1.4762   -0.5656    1.2732 O   0  0  0  0  0  0  0  0  0  0  0  0
   -1.3222    0.0327   -0.7978 H   0  0  0  0  0  0  0  0  0  0  0  0
   -2.7682   -1.2631    2.5548 H   0  0  0  0  0  0  0  0  0  0  0  0
   -3.7245   -2.8529    2.2879 H   0  0  0  0  0  0  0  0  0  0  0  0
   -0.0635    0.2214    2.3596 H   0  0  0  0  0  0  0  0  0  0  0  0
   -0.9115    2.1362    0.5029 H   0  0  0  0  0  0  0  0  0  0  0  0
    0.7557    1.5294    0.3514 H   0  0  0  0  0  0  0  0  0  0  0  0
  1  4  2  0
  1  8  1  0
  1  9  1  0
  2  3  1  0
  2  5  1  0
  2 11  1  0
  2 12  1  0
  3  6  2  0
  3 10  1  0
  5  7  1  0
M  END
