C=O.OCC=O_15
     RDKit          3D

 12 10  0  0  0  0  0  0  0  0999 V2000
   -3.4122   -2.0580    2.9633 C   0  0  0  0  0  0  0  0  0  0  0  0
   -0.1316    0.9663    0.1864 C   0  0  0  0  0  0  0  0  0  0  0  0
   -0.6772    0.2668    1.3821 C   0  0  0  0  0  0  0  0  0  0  0  0
   -3.2021   -2.8866    3.7878 O   0  0  0  0  0  0  0  0  0  0  0  0
   -1.1700    1.6136   -0.4998 O   0  0  0  0  0  0  0  0  0  0  0  0
   -1.7902   -0.1579    1.3839 O   0  0  0  0  0  0  0  0  0  0  0  0
   -2.0108    1.1304   -0.3335 H   0  0  0  0  0  0  0  0  0  0  0  0
   -2.5830   -1.5081    2.5463 H   0  0  0  0  0  0  0  0  0  0  0  0
   -4.4214   -1.8616    2.6394 H   0  0  0  0  0  0  0  0  0  0  0  0
   -0.0632    0.0778    2.2540 H   0  0  0  0  0  0  0  0  0  0  0  0
    0.6165    1.7253    0.4516 H   0  0  0  0  0  0  0  0  0  0  0  0
    0.3333    0.2511   -0.5061 H   0  0  0  0  0  0  0  0  0  0  0  0
  1  4  2  0
  1  8  1  0
  1  9  1  0
  2  3  1  0
  2  5  1  0
  2 11  1  0
  2 12  1  0
  3  6  2  0
  3 10  1  0
  5  7  1  0
M  END
