C=O.OCC=O_3
     RDKit          3D

 12 10  0  0  0  0  0  0  0  0999 V2000
   -3.9079   -1.4962    2.6553 C   0  0  0  0  0  0  0  0  0  0  0  0
   -0.4589    0.7087    0.2014 C   0  0  0  0  0  0  0  0  0  0  0  0
    0.3042    0.4482    1.4550 C   0  0  0  0  0  0  0  0  0  0  0  0
   -3.0076   -0.9313    2.1265 O   0  0  0  0  0  0  0  0  0  0  0  0
   -1.3433   -0.3329   -0.1437 O   0  0  0  0  0  0  0  0  0  0  0  0
    1.0441    1.2411    1.9564 O   0  0  0  0  0  0  0  0  0  0  0  0
   -1.9345   -0.5446    0.6214 H   0  0  0  0  0  0  0  0  0  0  0  0
   -4.1081   -1.3111    3.7003 H   0  0  0  0  0  0  0  0  0  0  0  0
   -4.5138   -2.1852    2.0859 H   0  0  0  0  0  0  0  0  0  0  0  0
    0.2092   -0.5132    1.9437 H   0  0  0  0  0  0  0  0  0  0  0  0
   -1.0303    1.6417    0.2922 H   0  0  0  0  0  0  0  0  0  0  0  0
    0.2351    0.8340   -0.6388 H   0  0  0  0  0  0  0  0  0  0  0  0
  1  4  2  0
  1  8  1  0
  1  9  1  0
  2  3  1  0
  2  5  1  0
  2 11  1  0
  2 12  1  0
  3  6  2  0
  3 10  1  0
  5  7  1  0
M  END
