C=O.OCC=O_9
     RDKit          3D

 12 10  0  0  0  0  0  0  0  0999 V2000
   -3.4841   -1.9040    2.9385 C   0  0  0  0  0  0  0  0  0  0  0  0
   -0.1540    0.7648    0.0892 C   0  0  0  0  0  0  0  0  0  0  0  0
   -0.5420    0.2162    1.4177 C   0  0  0  0  0  0  0  0  0  0  0  0
   -3.5348   -3.0868    3.0306 O   0  0  0  0  0  0  0  0  0  0  0  0
   -1.1265    1.6753   -0.3497 O   0  0  0  0  0  0  0  0  0  0  0  0
   -1.6895    0.0845    1.7091 O   0  0  0  0  0  0  0  0  0  0  0  0
   -1.9948    1.4260    0.0403 H   0  0  0  0  0  0  0  0  0  0  0  0
   -4.2396   -1.2923    3.4046 H   0  0  0  0  0  0  0  0  0  0  0  0
   -2.6729   -1.4536    2.3881 H   0  0  0  0  0  0  0  0  0  0  0  0
    0.2018   -0.1271    2.1261 H   0  0  0  0  0  0  0  0  0  0  0  0
    0.8082    1.2932    0.1196 H   0  0  0  0  0  0  0  0  0  0  0  0
   -0.0837   -0.0372   -0.6586 H   0  0  0  0  0  0  0  0  0  0  0  0
  1  4  2  0
  1  8  1  0
  1  9  1  0
  2  3  1  0
  2  5  1  0
  2 11  1  0
  2 12  1  0
  3  6  2  0
  3 10  1  0
  5  7  1  0
M  END
