C=O.OCC=O_6
     RDKit          3D

 12 10  0  0  0  0  0  0  0  0999 V2000
   -3.5772   -1.8022    2.8939 C   0  0  0  0  0  0  0  0  0  0  0  0
   -0.2832    1.1383    0.3423 C   0  0  0  0  0  0  0  0  0  0  0  0
   -0.4456    0.1197    1.4158 C   0  0  0  0  0  0  0  0  0  0  0  0
   -4.4033   -1.4136    3.6533 O   0  0  0  0  0  0  0  0  0  0  0  0
   -0.7229    0.6114   -0.8810 O   0  0  0  0  0  0  0  0  0  0  0  0
   -1.3295   -0.6773    1.3681 O   0  0  0  0  0  0  0  0  0  0  0  0
   -1.4164   -0.0641   -0.7057 H   0  0  0  0  0  0  0  0  0  0  0  0
   -3.5386   -2.8450    2.6236 H   0  0  0  0  0  0  0  0  0  0  0  0
   -2.8683   -1.1002    2.4836 H   0  0  0  0  0  0  0  0  0  0  0  0
    0.1958    0.1112    2.2883 H   0  0  0  0  0  0  0  0  0  0  0  0
   -0.8849    2.0319    0.5582 H   0  0  0  0  0  0  0  0  0  0  0  0
    0.7624    1.4491    0.2151 H   0  0  0  0  0  0  0  0  0  0  0  0
  1  4  2  0
  1  8  1  0
  1  9  1  0
  2  3  1  0
  2  5  1  0
  2 11  1  0
  2 12  1  0
  3  6  2  0
  3 10  1  0
  5  7  1  0
M  END
