C=O.OCC=O_14
     RDKit          3D

 12 10  0  0  0  0  0  0  0  0999 V2000
   -3.4965   -1.9170    2.9843 C   0  0  0  0  0  0  0  0  0  0  0  0
   -0.1177    0.8160    0.1046 C   0  0  0  0  0  0  0  0  0  0  0  0
   -0.5914    0.1587    1.3534 C   0  0  0  0  0  0  0  0  0  0  0  0
   -3.3909   -3.0104    3.4343 O   0  0  0  0  0  0  0  0  0  0  0  0
   -1.0828    1.7284   -0.3467 O   0  0  0  0  0  0  0  0  0  0  0  0
   -1.7539   -0.0174    1.5448 O   0  0  0  0  0  0  0  0  0  0  0  0
   -1.9699    1.4282   -0.0453 H   0  0  0  0  0  0  0  0  0  0  0  0
   -4.4234   -1.3767    3.0890 H   0  0  0  0  0  0  0  0  0  0  0  0
   -2.6513   -1.4693    2.4856 H   0  0  0  0  0  0  0  0  0  0  0  0
    0.1053   -0.2243    2.0889 H   0  0  0  0  0  0  0  0  0  0  0  0
    0.8197    1.3683    0.2530 H   0  0  0  0  0  0  0  0  0  0  0  0
    0.0409    0.0747   -0.6904 H   0  0  0  0  0  0  0  0  0  0  0  0
  1  4  2  0
  1  8  1  0
  1  9  1  0
  2  3  1  0
  2  5  1  0
  2 11  1  0
  2 12  1  0
  3  6  2  0
  3 10  1  0
  5  7  1  0
M  END
