C=O.OCC=O_12
     RDKit          3D

 12 10  0  0  0  0  0  0  0  0999 V2000
   -3.3959   -2.0563    2.9255 C   0  0  0  0  0  0  0  0  0  0  0  0
   -0.1829    0.9063    0.1291 C   0  0  0  0  0  0  0  0  0  0  0  0
   -0.5981    0.2521    1.4003 C   0  0  0  0  0  0  0  0  0  0  0  0
   -3.3006   -3.2106    3.1875 O   0  0  0  0  0  0  0  0  0  0  0  0
   -1.2131    1.7377   -0.3347 O   0  0  0  0  0  0  0  0  0  0  0  0
   -1.7433   -0.0014    1.6079 O   0  0  0  0  0  0  0  0  0  0  0  0
   -2.0746    1.3835   -0.0178 H   0  0  0  0  0  0  0  0  0  0  0  0
   -2.5908   -1.5680    2.3989 H   0  0  0  0  0  0  0  0  0  0  0  0
   -4.2767   -1.5068    3.2162 H   0  0  0  0  0  0  0  0  0  0  0  0
    0.1301   -0.0593    2.1391 H   0  0  0  0  0  0  0  0  0  0  0  0
    0.7157    1.5255    0.2516 H   0  0  0  0  0  0  0  0  0  0  0  0
    0.0184    0.1563   -0.6481 H   0  0  0  0  0  0  0  0  0  0  0  0
  1  4  2  0
  1  8  1  0
  1  9  1  0
  2  3  1  0
  2  5  1  0
  2 11  1  0
  2 12  1  0
  3  6  2  0
  3 10  1  0
  5  7  1  0
M  END
