C=O.OCC=O_10
     RDKit          3D

 12 10  0  0  0  0  0  0  0  0999 V2000
   -3.5770   -1.7833    2.8462 C   0  0  0  0  0  0  0  0  0  0  0  0
   -0.3360    1.1257    0.3211 C   0  0  0  0  0  0  0  0  0  0  0  0
   -0.4012    0.1994    1.4847 C   0  0  0  0  0  0  0  0  0  0  0  0
   -4.6259   -1.3891    3.2390 O   0  0  0  0  0  0  0  0  0  0  0  0
   -0.7072    0.4446   -0.8474 O   0  0  0  0  0  0  0  0  0  0  0  0
   -1.2017   -0.6821    1.5148 O   0  0  0  0  0  0  0  0  0  0  0  0
   -1.3317   -0.2776   -0.6102 H   0  0  0  0  0  0  0  0  0  0  0  0
   -3.3107   -2.8213    2.9631 H   0  0  0  0  0  0  0  0  0  0  0  0
   -2.8979   -1.0901    2.3751 H   0  0  0  0  0  0  0  0  0  0  0  0
    0.2344    0.3344    2.3511 H   0  0  0  0  0  0  0  0  0  0  0  0
   -1.0296    1.9675    0.4533 H   0  0  0  0  0  0  0  0  0  0  0  0
    0.6726    1.5311    0.1648 H   0  0  0  0  0  0  0  0  0  0  0  0
  1  4  2  0
  1  8  1  0
  1  9  1  0
  2  3  1  0
  2  5  1  0
  2 11  1  0
  2 12  1  0
  3  6  2  0
  3 10  1  0
  5  7  1  0
M  END
