C=O.OCC=O_11
     RDKit          3D

 12 10  0  0  0  0  0  0  0  0999 V2000
   -3.5732   -1.8058    2.9572 C   0  0  0  0  0  0  0  0  0  0  0  0
   -0.2068    1.1204    0.3585 C   0  0  0  0  0  0  0  0  0  0  0  0
   -0.4954    0.0109    1.3083 C   0  0  0  0  0  0  0  0  0  0  0  0
   -4.0339   -1.5970    4.0316 O   0  0  0  0  0  0  0  0  0  0  0  0
   -0.8001    0.8479   -0.8830 O   0  0  0  0  0  0  0  0  0  0  0  0
   -1.5083   -0.6107    1.2273 O   0  0  0  0  0  0  0  0  0  0  0  0
   -1.5927    0.2828   -0.7397 H   0  0  0  0  0  0  0  0  0  0  0  0
   -3.9208   -2.6426    2.3732 H   0  0  0  0  0  0  0  0  0  0  0  0
   -2.8045   -1.1508    2.5780 H   0  0  0  0  0  0  0  0  0  0  0  0
    0.1762   -0.2220    2.1254 H   0  0  0  0  0  0  0  0  0  0  0  0
   -0.6222    2.0681    0.7279 H   0  0  0  0  0  0  0  0  0  0  0  0
    0.8697    1.2579    0.1907 H   0  0  0  0  0  0  0  0  0  0  0  0
  1  4  2  0
  1  8  1  0
  1  9  1  0
  2  3  1  0
  2  5  1  0
  2 11  1  0
  2 12  1  0
  3  6  2  0
  3 10  1  0
  5  7  1  0
M  END
