C=O.OCC=O_0
     RDKit          3D

 12 10  0  0  0  0  0  0  0  0999 V2000
   -3.3634   -1.2937    2.5479 C   0  0  0  0  0  0  0  0  0  0  0  0
   -0.6241    0.7800    0.3713 C   0  0  0  0  0  0  0  0  0  0  0  0
   -0.0124    0.0542    1.5191 C   0  0  0  0  0  0  0  0  0  0  0  0
   -3.6019   -1.0274    1.4150 O   0  0  0  0  0  0  0  0  0  0  0  0
   -1.5428   -0.0191   -0.3250 O   0  0  0  0  0  0  0  0  0  0  0  0
   -0.6496   -0.3108    2.4575 O   0  0  0  0  0  0  0  0  0  0  0  0
   -2.2362   -0.3734    0.2849 H   0  0  0  0  0  0  0  0  0  0  0  0
   -4.1346   -1.7109    3.1758 H   0  0  0  0  0  0  0  0  0  0  0  0
   -2.3703   -1.1054    2.9314 H   0  0  0  0  0  0  0  0  0  0  0  0
    1.0366   -0.2161    1.5060 H   0  0  0  0  0  0  0  0  0  0  0  0
   -1.1472    1.6784    0.7251 H   0  0  0  0  0  0  0  0  0  0  0  0
    0.1341    1.1033   -0.3535 H   0  0  0  0  0  0  0  0  0  0  0  0
  1  4  2  0
  1  8  1  0
  1  9  1  0
  2  3  1  0
  2  5  1  0
  2 11  1  0
  2 12  1  0
  3  6  2  0
  3 10  1  0
  5  7  1  0
M  END
