C=O.C_0
     RDKit          3D

  9  7  0  0  0  0  0  0  0  0999 V2000
   -2.5018   -2.1411    1.9131 C   0  0  0  0  0  0  0  0  0  0  0  0
   -1.6989    0.7436   -0.1028 C   0  0  0  0  0  0  0  0  0  0  0  0
   -1.5887   -1.5863    2.4320 O   0  0  0  0  0  0  0  0  0  0  0  0
   -1.1251    1.5172   -0.6096 H   0  0  0  0  0  0  0  0  0  0  0  0
   -3.3825   -1.5792    1.6432 H   0  0  0  0  0  0  0  0  0  0  0  0
   -2.4375   -3.1992    1.7122 H   0  0  0  0  0  0  0  0  0  0  0  0
   -1.1564    0.4089    0.7793 H   0  0  0  0  0  0  0  0  0  0  0  0
   -1.8488   -0.0978   -0.7770 H   0  0  0  0  0  0  0  0  0  0  0  0
   -2.6651    1.1457    0.1969 H   0  0  0  0  0  0  0  0  0  0  0  0
  1  3  2  0
  1  5  1  0
  1  6  1  0
  2  4  1  0
  2  7  1  0
  2  8  1  0
  2  9  1  0
M  END
