C=O.C
     RDKit          3D

  9  7  0  0  0  0  0  0  0  0999 V2000
   -2.3023   -2.2037    1.8660 C   0  0  0  0  0  0  0  0  0  0  0  0
   -1.8593    0.7945   -0.0696 C   0  0  0  0  0  0  0  0  0  0  0  0
   -1.3934   -1.7057    2.5087 O   0  0  0  0  0  0  0  0  0  0  0  0
   -0.8952    0.2493   -0.0064 H   0  0  0  0  0  0  0  0  0  0  0  0
   -3.2132   -1.6420    1.6904 H   0  0  0  0  0  0  0  0  0  0  0  0
   -2.1993   -3.2075    1.4691 H   0  0  0  0  0  0  0  0  0  0  0  0
   -2.1978    1.0654    0.9516 H   0  0  0  0  0  0  0  0  0  0  0  0
   -2.6196    0.1453   -0.5505 H   0  0  0  0  0  0  0  0  0  0  0  0
   -1.7248    1.7163   -0.6720 H   0  0  0  0  0  0  0  0  0  0  0  0
  1  3  2  0
  1  5  1  0
  1  6  1  0
  2  4  1  0
  2  7  1  0
  2  8  1  0
  2  9  1  0
M  END
