C1CCN1
     RDKit          3D

 11 11  0  0  0  0  0  0  0  0999 V2000
   -0.5133    0.2346    0.5459 C   0  0  0  0  0  0  0  0  0  0  0  0
   -0.2811    0.4448    1.9748 N   0  0  0  0  0  0  0  0  0  0  0  0
    0.9362   -0.1092    0.2736 C   0  0  0  0  0  0  0  0  0  0  0  0
    1.1275    0.1143    1.7591 C   0  0  0  0  0  0  0  0  0  0  0  0
    1.4533    0.6515   -0.3505 H   0  0  0  0  0  0  0  0  0  0  0  0
   -0.3538    1.4709    2.1749 H   0  0  0  0  0  0  0  0  0  0  0  0
   -0.8412    1.1637    0.0253 H   0  0  0  0  0  0  0  0  0  0  0  0
   -1.1941   -0.6282    0.3766 H   0  0  0  0  0  0  0  0  0  0  0  0
    1.0837   -1.1681   -0.0310 H   0  0  0  0  0  0  0  0  0  0  0  0
    1.4037   -0.8187    2.2974 H   0  0  0  0  0  0  0  0  0  0  0  0
    1.8059    0.9696    1.9825 H   0  0  0  0  0  0  0  0  0  0  0  0
  1  2  1  0
  1  3  1  0
  1  7  1  0
  1  8  1  0
  2  4  1  0
  2  6  1  0
  3  4  1  0
  3  5  1  0
  3  9  1  0
  4 10  1  0
  4 11  1  0
M  END
