C1CCN1_0
     RDKit          3D

 11 11  0  0  0  0  0  0  0  0999 V2000
   -0.5557    0.1957    0.5444 C   0  0  0  0  0  0  0  0  0  0  0  0
   -0.2466    0.5917    1.9452 N   0  0  0  0  0  0  0  0  0  0  0  0
    0.9392   -0.0412    0.2764 C   0  0  0  0  0  0  0  0  0  0  0  0
    1.1390    0.0705    1.7963 C   0  0  0  0  0  0  0  0  0  0  0  0
    1.4197    0.7654   -0.2933 H   0  0  0  0  0  0  0  0  0  0  0  0
   -0.2384    1.6140    2.0249 H   0  0  0  0  0  0  0  0  0  0  0  0
   -1.0192    0.9929   -0.0590 H   0  0  0  0  0  0  0  0  0  0  0  0
   -1.1671   -0.7178    0.5197 H   0  0  0  0  0  0  0  0  0  0  0  0
    1.1804   -1.0256   -0.1486 H   0  0  0  0  0  0  0  0  0  0  0  0
    1.2526   -0.8965    2.3074 H   0  0  0  0  0  0  0  0  0  0  0  0
    1.9229    0.7761    2.1153 H   0  0  0  0  0  0  0  0  0  0  0  0
  1  2  1  0
  1  3  1  0
  1  7  1  0
  1  8  1  0
  2  4  1  0
  2  6  1  0
  3  4  1  0
  3  5  1  0
  3  9  1  0
  4 10  1  0
  4 11  1  0
M  END
