OO/C=C(/O)\C_0
     RDKit          3D

 12 11  0  0  0  0  0  0  0  0999 V2000
    0.0786   -0.4366    1.4036 C   0  0  0  0  0  0  0  0  0  0  0  0
    1.1018    1.2479   -0.0434 C   0  0  0  0  0  0  0  0  0  0  0  0
   -0.0485    0.4186    0.3765 C   0  0  0  0  0  0  0  0  0  0  0  0
    1.2623   -0.6087    2.0990 O   0  0  0  0  0  0  0  0  0  0  0  0
    2.3886   -0.8400    1.1944 O   0  0  0  0  0  0  0  0  0  0  0  0
   -1.2692    0.5182   -0.2864 O   0  0  0  0  0  0  0  0  0  0  0  0
    2.5949   -1.7785    1.3322 H   0  0  0  0  0  0  0  0  0  0  0  0
   -1.2015    1.1682   -1.0192 H   0  0  0  0  0  0  0  0  0  0  0  0
   -0.7706   -1.0259    1.7171 H   0  0  0  0  0  0  0  0  0  0  0  0
    0.8468    2.3083   -0.0230 H   0  0  0  0  0  0  0  0  0  0  0  0
    1.4200    0.9839   -1.0527 H   0  0  0  0  0  0  0  0  0  0  0  0
    1.9468    1.0856    0.6294 H   0  0  0  0  0  0  0  0  0  0  0  0
  1  3  2  0
  1  4  1  0
  1  9  1  0
  2  3  1  0
  2 10  1  0
  2 11  1  0
  2 12  1  0
  3  6  1  0
  4  5  1  0
  5  7  1  0
  6  8  1  0
M  END
