OO/C=C(/O)\C_3
     RDKit          3D

 12 11  0  0  0  0  0  0  0  0999 V2000
   -0.0386   -0.2490    1.2357 C   0  0  0  0  0  0  0  0  0  0  0  0
    1.3113    1.2509   -0.1392 C   0  0  0  0  0  0  0  0  0  0  0  0
    0.0788    0.4768    0.1138 C   0  0  0  0  0  0  0  0  0  0  0  0
    0.9606   -0.3299    2.1886 O   0  0  0  0  0  0  0  0  0  0  0  0
    2.2623   -0.6108    1.5836 O   0  0  0  0  0  0  0  0  0  0  0  0
   -0.9426    0.5170   -0.8315 O   0  0  0  0  0  0  0  0  0  0  0  0
    2.4654   -1.5071    1.8978 H   0  0  0  0  0  0  0  0  0  0  0  0
   -1.6949   -0.0461   -0.5467 H   0  0  0  0  0  0  0  0  0  0  0  0
   -0.9459   -0.8006    1.4259 H   0  0  0  0  0  0  0  0  0  0  0  0
    2.1517    0.5763   -0.3113 H   0  0  0  0  0  0  0  0  0  0  0  0
    1.5541    1.8722    0.7245 H   0  0  0  0  0  0  0  0  0  0  0  0
    1.1877    1.8913   -1.0136 H   0  0  0  0  0  0  0  0  0  0  0  0
  1  3  2  0
  1  4  1  0
  1  9  1  0
  2  3  1  0
  2 10  1  0
  2 11  1  0
  2 12  1  0
  3  6  1  0
  4  5  1  0
  5  7  1  0
  6  8  1  0
M  END
