OO/C=C(/O)\C_7
     RDKit          3D

 12 11  0  0  0  0  0  0  0  0999 V2000
    0.4255   -0.2972    1.0048 C   0  0  0  0  0  0  0  0  0  0  0  0
    1.1593    1.5762   -0.3875 C   0  0  0  0  0  0  0  0  0  0  0  0
    0.1302    0.6170    0.0681 C   0  0  0  0  0  0  0  0  0  0  0  0
    1.6660   -0.4133    1.5922 O   0  0  0  0  0  0  0  0  0  0  0  0
    1.6551   -1.4932    2.5831 O   0  0  0  0  0  0  0  0  0  0  0  0
   -1.1413    0.6891   -0.4923 O   0  0  0  0  0  0  0  0  0  0  0  0
    2.2525   -2.1602    2.2050 H   0  0  0  0  0  0  0  0  0  0  0  0
   -1.7405    0.0363   -0.0692 H   0  0  0  0  0  0  0  0  0  0  0  0
   -0.3266   -0.9910    1.3424 H   0  0  0  0  0  0  0  0  0  0  0  0
    1.2844    1.5129   -1.4693 H   0  0  0  0  0  0  0  0  0  0  0  0
    2.1204    1.3680    0.0871 H   0  0  0  0  0  0  0  0  0  0  0  0
    0.8647    2.5963   -0.1371 H   0  0  0  0  0  0  0  0  0  0  0  0
  1  3  2  0
  1  4  1  0
  1  9  1  0
  2  3  1  0
  2 10  1  0
  2 11  1  0
  2 12  1  0
  3  6  1  0
  4  5  1  0
  5  7  1  0
  6  8  1  0
M  END
