OO/C=C(/O)\C_4
     RDKit          3D

 12 11  0  0  0  0  0  0  0  0999 V2000
    0.2018   -0.8740    0.8373 C   0  0  0  0  0  0  0  0  0  0  0  0
    1.1428    1.1304   -0.1837 C   0  0  0  0  0  0  0  0  0  0  0  0
   -0.0101    0.2814    0.1874 C   0  0  0  0  0  0  0  0  0  0  0  0
    1.4600   -1.3145    1.2081 O   0  0  0  0  0  0  0  0  0  0  0  0
    2.2091   -0.2726    1.9097 O   0  0  0  0  0  0  0  0  0  0  0  0
   -1.3156    0.6554   -0.1276 O   0  0  0  0  0  0  0  0  0  0  0  0
    2.2646   -0.6126    2.8176 H   0  0  0  0  0  0  0  0  0  0  0  0
   -1.3197    1.5221   -0.5894 H   0  0  0  0  0  0  0  0  0  0  0  0
   -0.6362   -1.5063    1.0931 H   0  0  0  0  0  0  0  0  0  0  0  0
    1.8338    0.5720   -0.8174 H   0  0  0  0  0  0  0  0  0  0  0  0
    1.6897    1.4321    0.7111 H   0  0  0  0  0  0  0  0  0  0  0  0
    0.8296    2.0276   -0.7187 H   0  0  0  0  0  0  0  0  0  0  0  0
  1  3  2  0
  1  4  1  0
  1  9  1  0
  2  3  1  0
  2 10  1  0
  2 11  1  0
  2 12  1  0
  3  6  1  0
  4  5  1  0
  5  7  1  0
  6  8  1  0
M  END
