OO/C=C(/O)\C_2
     RDKit          3D

 12 11  0  0  0  0  0  0  0  0999 V2000
    0.1506   -0.7106    0.7181 C   0  0  0  0  0  0  0  0  0  0  0  0
    1.3227    1.2285   -0.1962 C   0  0  0  0  0  0  0  0  0  0  0  0
    0.0838    0.4862    0.1155 C   0  0  0  0  0  0  0  0  0  0  0  0
    1.3446   -1.2933    1.1035 O   0  0  0  0  0  0  0  0  0  0  0  0
    2.1517   -0.3800    1.9129 O   0  0  0  0  0  0  0  0  0  0  0  0
   -1.1391    1.0487   -0.2399 O   0  0  0  0  0  0  0  0  0  0  0  0
    2.1384   -0.7909    2.7923 H   0  0  0  0  0  0  0  0  0  0  0  0
   -1.8776    0.4601    0.0285 H   0  0  0  0  0  0  0  0  0  0  0  0
   -0.7548   -1.2606    0.9217 H   0  0  0  0  0  0  0  0  0  0  0  0
    1.8596    0.7484   -1.0156 H   0  0  0  0  0  0  0  0  0  0  0  0
    1.9819    1.2511    0.6730 H   0  0  0  0  0  0  0  0  0  0  0  0
    1.0879    2.2534   -0.4864 H   0  0  0  0  0  0  0  0  0  0  0  0
  1  3  2  0
  1  4  1  0
  1  9  1  0
  2  3  1  0
  2 10  1  0
  2 11  1  0
  2 12  1  0
  3  6  1  0
  4  5  1  0
  5  7  1  0
  6  8  1  0
M  END
