OO/C=C(/O)\C_1
     RDKit          3D

 12 11  0  0  0  0  0  0  0  0999 V2000
    0.1259   -0.7186    0.6887 C   0  0  0  0  0  0  0  0  0  0  0  0
    1.3008    1.2565   -0.1493 C   0  0  0  0  0  0  0  0  0  0  0  0
    0.0617    0.5223    0.1821 C   0  0  0  0  0  0  0  0  0  0  0  0
    1.3217   -1.3659    0.9421 O   0  0  0  0  0  0  0  0  0  0  0  0
    2.2478   -0.5161    1.6910 O   0  0  0  0  0  0  0  0  0  0  0  0
   -1.1601    1.1492   -0.0422 O   0  0  0  0  0  0  0  0  0  0  0  0
    2.2744   -0.9335    2.5672 H   0  0  0  0  0  0  0  0  0  0  0  0
   -1.9003    0.5641    0.2297 H   0  0  0  0  0  0  0  0  0  0  0  0
   -0.7827   -1.2545    0.9132 H   0  0  0  0  0  0  0  0  0  0  0  0
    1.4464    2.0860    0.5439 H   0  0  0  0  0  0  0  0  0  0  0  0
    1.2482    1.6578   -1.1622 H   0  0  0  0  0  0  0  0  0  0  0  0
    2.1660    0.5936   -0.0766 H   0  0  0  0  0  0  0  0  0  0  0  0
  1  3  2  0
  1  4  1  0
  1  9  1  0
  2  3  1  0
  2 10  1  0
  2 11  1  0
  2 12  1  0
  3  6  1  0
  4  5  1  0
  5  7  1  0
  6  8  1  0
M  END
