CC(=C)N_0
     RDKit          3D

 11 10  0  0  0  0  0  0  0  0999 V2000
   -0.8853   -0.2196    0.9838 C   0  0  0  0  0  0  0  0  0  0  0  0
    0.5099    1.8122    1.2631 N   0  0  0  0  0  0  0  0  0  0  0  0
    0.4462    0.4270    1.1172 C   0  0  0  0  0  0  0  0  0  0  0  0
    1.5568   -0.3160    1.1062 C   0  0  0  0  0  0  0  0  0  0  0  0
   -0.3083    2.3399    1.5419 H   0  0  0  0  0  0  0  0  0  0  0  0
    1.3531    2.2537    1.6090 H   0  0  0  0  0  0  0  0  0  0  0  0
   -1.1082   -0.8354    1.8576 H   0  0  0  0  0  0  0  0  0  0  0  0
   -0.9221   -0.8585    0.0990 H   0  0  0  0  0  0  0  0  0  0  0  0
   -1.6751    0.5278    0.8883 H   0  0  0  0  0  0  0  0  0  0  0  0
    2.5246    0.1360    1.2014 H   0  0  0  0  0  0  0  0  0  0  0  0
    1.5153   -1.3834    1.0003 H   0  0  0  0  0  0  0  0  0  0  0  0
  1  3  1  0
  1  7  1  0
  1  8  1  0
  1  9  1  0
  2  3  1  0
  2  5  1  0
  2  6  1  0
  3  4  2  0
  4 10  1  0
  4 11  1  0
M  END
