CC(=C)N
     RDKit          3D

 11 10  0  0  0  0  0  0  0  0999 V2000
   -0.9011   -0.2441    1.0077 C   0  0  0  0  0  0  0  0  0  0  0  0
    0.5215    1.7595    1.6354 N   0  0  0  0  0  0  0  0  0  0  0  0
    0.4376    0.4200    1.1381 C   0  0  0  0  0  0  0  0  0  0  0  0
    1.5508   -0.2571    0.8510 C   0  0  0  0  0  0  0  0  0  0  0  0
    1.4438    2.2367    1.7503 H   0  0  0  0  0  0  0  0  0  0  0  0
   -0.3426    2.2845    1.8959 H   0  0  0  0  0  0  0  0  0  0  0  0
   -1.7106    0.5152    0.9785 H   0  0  0  0  0  0  0  0  0  0  0  0
   -1.0692   -0.9149    1.8762 H   0  0  0  0  0  0  0  0  0  0  0  0
   -0.9513   -0.8389    0.0705 H   0  0  0  0  0  0  0  0  0  0  0  0
    2.5239    0.2036    0.9643 H   0  0  0  0  0  0  0  0  0  0  0  0
    1.5041   -1.2807    0.5000 H   0  0  0  0  0  0  0  0  0  0  0  0
  1  3  1  0
  1  7  1  0
  1  8  1  0
  1  9  1  0
  2  3  1  0
  2  5  1  0
  2  6  1  0
  3  4  2  0
  4 10  1  0
  4 11  1  0
M  END
