CNC=C_0
     RDKit          3D

 11 10  0  0  0  0  0  0  0  0999 V2000
    0.6581    2.0519    0.9051 C   0  0  0  0  0  0  0  0  0  0  0  0
   -0.0471    0.7835    0.9225 N   0  0  0  0  0  0  0  0  0  0  0  0
    0.5855   -0.4166    1.2302 C   0  0  0  0  0  0  0  0  0  0  0  0
   -0.0702   -1.5488    1.4619 C   0  0  0  0  0  0  0  0  0  0  0  0
    0.0817    2.8200    0.3859 H   0  0  0  0  0  0  0  0  0  0  0  0
   -1.0533    0.8707    1.0805 H   0  0  0  0  0  0  0  0  0  0  0  0
    1.6119    1.9397    0.3879 H   0  0  0  0  0  0  0  0  0  0  0  0
    0.8585    2.3912    1.9227 H   0  0  0  0  0  0  0  0  0  0  0  0
    1.6619   -0.4043    1.2762 H   0  0  0  0  0  0  0  0  0  0  0  0
    0.4453   -2.4605    1.6964 H   0  0  0  0  0  0  0  0  0  0  0  0
   -1.1411   -1.5804    1.4172 H   0  0  0  0  0  0  0  0  0  0  0  0
  1  2  1  0
  1  5  1  0
  1  7  1  0
  1  8  1  0
  2  3  1  0
  2  6  1  0
  3  4  2  0
  3  9  1  0
  4 10  1  0
  4 11  1  0
M  END
