CNC=C
     RDKit          3D

 11 10  0  0  0  0  0  0  0  0999 V2000
    0.6713    2.0601    0.8973 C   0  0  0  0  0  0  0  0  0  0  0  0
   -0.0707    0.8127    1.0087 N   0  0  0  0  0  0  0  0  0  0  0  0
    0.5991   -0.4042    1.3528 C   0  0  0  0  0  0  0  0  0  0  0  0
   -0.0708   -1.5478    1.4567 C   0  0  0  0  0  0  0  0  0  0  0  0
   -0.0183    2.8865    0.6240 H   0  0  0  0  0  0  0  0  0  0  0  0
   -1.1015    0.8175    0.8336 H   0  0  0  0  0  0  0  0  0  0  0  0
    1.4498    1.9657    0.1112 H   0  0  0  0  0  0  0  0  0  0  0  0
    1.1529    2.2993    1.8689 H   0  0  0  0  0  0  0  0  0  0  0  0
    1.6677   -0.3988    1.5323 H   0  0  0  0  0  0  0  0  0  0  0  0
    0.4505   -2.4595    1.7178 H   0  0  0  0  0  0  0  0  0  0  0  0
   -1.1388   -1.5850    1.2833 H   0  0  0  0  0  0  0  0  0  0  0  0
  1  2  1  0
  1  5  1  0
  1  7  1  0
  1  8  1  0
  2  3  1  0
  2  6  1  0
  3  4  2  0
  3  9  1  0
  4 10  1  0
  4 11  1  0
M  END
