OOCOC=C_6
     RDKit          3D

 12 11  0  0  0  0  0  0  0  0999 V2000
   -0.7286   -0.4721    0.6860 C   0  0  0  0  0  0  0  0  0  0  0  0
    1.2588    1.1178   -0.4274 C   0  0  0  0  0  0  0  0  0  0  0  0
    0.4811    1.5063    0.5748 C   0  0  0  0  0  0  0  0  0  0  0  0
    0.3827   -1.2984    0.5631 O   0  0  0  0  0  0  0  0  0  0  0  0
    1.4037   -0.8997    1.5132 O   0  0  0  0  0  0  0  0  0  0  0  0
   -0.4236    0.7551    1.2894 O   0  0  0  0  0  0  0  0  0  0  0  0
    0.9086   -0.6382    2.3138 H   0  0  0  0  0  0  0  0  0  0  0  0
   -1.4668   -0.9824    1.3158 H   0  0  0  0  0  0  0  0  0  0  0  0
   -1.1676   -0.2997   -0.3030 H   0  0  0  0  0  0  0  0  0  0  0  0
    0.5300    2.5345    0.9140 H   0  0  0  0  0  0  0  0  0  0  0  0
    1.2781    0.0868   -0.7201 H   0  0  0  0  0  0  0  0  0  0  0  0
    1.9350    1.7952   -0.9078 H   0  0  0  0  0  0  0  0  0  0  0  0
  1  4  1  0
  1  6  1  0
  1  8  1  0
  1  9  1  0
  2  3  2  0
  2 11  1  0
  2 12  1  0
  3  6  1  0
  3 10  1  0
  4  5  1  0
  5  7  1  0
M  END
