OOCOC=C_1
     RDKit          3D

 12 11  0  0  0  0  0  0  0  0999 V2000
    0.2569   -1.2496    0.5179 C   0  0  0  0  0  0  0  0  0  0  0  0
    0.4497    2.2037   -0.3161 C   0  0  0  0  0  0  0  0  0  0  0  0
    0.6628    0.9501    0.0673 C   0  0  0  0  0  0  0  0  0  0  0  0
    0.8772   -1.0916    1.7458 O   0  0  0  0  0  0  0  0  0  0  0  0
   -0.0760   -0.4674    2.6313 O   0  0  0  0  0  0  0  0  0  0  0  0
   -0.2922   -0.0381    0.0791 O   0  0  0  0  0  0  0  0  0  0  0  0
   -0.2740    0.3895    2.2060 H   0  0  0  0  0  0  0  0  0  0  0  0
   -0.5585   -1.9728    0.6408 H   0  0  0  0  0  0  0  0  0  0  0  0
    0.9803   -1.6245   -0.2151 H   0  0  0  0  0  0  0  0  0  0  0  0
    1.6472    0.6556    0.4104 H   0  0  0  0  0  0  0  0  0  0  0  0
   -0.5173    2.5168   -0.6561 H   0  0  0  0  0  0  0  0  0  0  0  0
    1.2352    2.9333   -0.2994 H   0  0  0  0  0  0  0  0  0  0  0  0
  1  4  1  0
  1  6  1  0
  1  8  1  0
  1  9  1  0
  2  3  2  0
  2 11  1  0
  2 12  1  0
  3  6  1  0
  3 10  1  0
  4  5  1  0
  5  7  1  0
M  END
