OOCOC=C_5
     RDKit          3D

 12 11  0  0  0  0  0  0  0  0999 V2000
    0.0861   -1.2640    0.4555 C   0  0  0  0  0  0  0  0  0  0  0  0
    0.4743    2.1993   -0.3283 C   0  0  0  0  0  0  0  0  0  0  0  0
    0.6070    0.9497    0.1003 C   0  0  0  0  0  0  0  0  0  0  0  0
    0.2857   -1.3841    1.8259 O   0  0  0  0  0  0  0  0  0  0  0  0
    0.7027   -0.1276    2.3848 O   0  0  0  0  0  0  0  0  0  0  0  0
   -0.3827   -0.0024    0.0587 O   0  0  0  0  0  0  0  0  0  0  0  0
   -0.1356    0.2574    2.6930 H   0  0  0  0  0  0  0  0  0  0  0  0
   -0.6546   -2.0147    0.1550 H   0  0  0  0  0  0  0  0  0  0  0  0
    1.0302   -1.4794   -0.0581 H   0  0  0  0  0  0  0  0  0  0  0  0
    1.5464    0.6308    0.5362 H   0  0  0  0  0  0  0  0  0  0  0  0
   -0.4500    2.5387   -0.7515 H   0  0  0  0  0  0  0  0  0  0  0  0
    1.2817    2.9014   -0.2593 H   0  0  0  0  0  0  0  0  0  0  0  0
  1  4  1  0
  1  6  1  0
  1  8  1  0
  1  9  1  0
  2  3  2  0
  2 11  1  0
  2 12  1  0
  3  6  1  0
  3 10  1  0
  4  5  1  0
  5  7  1  0
M  END
