OOCOC=C_2
     RDKit          3D

 12 11  0  0  0  0  0  0  0  0999 V2000
    0.2013   -1.2455    0.5388 C   0  0  0  0  0  0  0  0  0  0  0  0
    0.4660    2.1784   -0.3730 C   0  0  0  0  0  0  0  0  0  0  0  0
    0.6267    0.9517    0.1092 C   0  0  0  0  0  0  0  0  0  0  0  0
    0.9190   -1.1316    1.7247 O   0  0  0  0  0  0  0  0  0  0  0  0
    0.4403    0.0069    2.4796 O   0  0  0  0  0  0  0  0  0  0  0  0
   -0.3413   -0.0198    0.1379 O   0  0  0  0  0  0  0  0  0  0  0  0
   -0.5271    0.0057    2.3430 H   0  0  0  0  0  0  0  0  0  0  0  0
   -0.6227   -1.9519    0.6943 H   0  0  0  0  0  0  0  0  0  0  0  0
    0.8614   -1.6314   -0.2467 H   0  0  0  0  0  0  0  0  0  0  0  0
    1.5769    0.6647    0.5456 H   0  0  0  0  0  0  0  0  0  0  0  0
   -0.4721    2.4830   -0.7920 H   0  0  0  0  0  0  0  0  0  0  0  0
    1.2631    2.8949   -0.3494 H   0  0  0  0  0  0  0  0  0  0  0  0
  1  4  1  0
  1  6  1  0
  1  8  1  0
  1  9  1  0
  2  3  2  0
  2 11  1  0
  2 12  1  0
  3  6  1  0
  3 10  1  0
  4  5  1  0
  5  7  1  0
M  END
