OOCOC=C_0
     RDKit          3D

 12 11  0  0  0  0  0  0  0  0999 V2000
   -0.3896   -1.0088    0.5835 C   0  0  0  0  0  0  0  0  0  0  0  0
    1.0161    2.0469   -0.6048 C   0  0  0  0  0  0  0  0  0  0  0  0
    0.4556    1.0663    0.0928 C   0  0  0  0  0  0  0  0  0  0  0  0
   -0.3886   -0.5503    1.8937 O   0  0  0  0  0  0  0  0  0  0  0  0
    0.9648   -0.2340    2.2810 O   0  0  0  0  0  0  0  0  0  0  0  0
    0.4229   -0.2531   -0.2769 O   0  0  0  0  0  0  0  0  0  0  0  0
    1.2474   -1.0111    2.7940 H   0  0  0  0  0  0  0  0  0  0  0  0
   -1.4196   -0.9930    0.2087 H   0  0  0  0  0  0  0  0  0  0  0  0
   -0.0212   -2.0407    0.5782 H   0  0  0  0  0  0  0  0  0  0  0  0
   -0.0050    1.2798    1.0504 H   0  0  0  0  0  0  0  0  0  0  0  0
    1.4922    1.8462   -1.5438 H   0  0  0  0  0  0  0  0  0  0  0  0
    1.0164    3.0568   -0.2448 H   0  0  0  0  0  0  0  0  0  0  0  0
  1  4  1  0
  1  6  1  0
  1  8  1  0
  1  9  1  0
  2  3  2  0
  2 11  1  0
  2 12  1  0
  3  6  1  0
  3 10  1  0
  4  5  1  0
  5  7  1  0
M  END
