OOCOC=C_3
     RDKit          3D

 12 11  0  0  0  0  0  0  0  0999 V2000
   -0.7284   -0.4363    0.6227 C   0  0  0  0  0  0  0  0  0  0  0  0
    1.3372    1.1439   -0.3983 C   0  0  0  0  0  0  0  0  0  0  0  0
    0.4013    1.5940    0.4262 C   0  0  0  0  0  0  0  0  0  0  0  0
    0.4561   -1.1578    0.6691 O   0  0  0  0  0  0  0  0  0  0  0  0
    1.2479   -0.7031    1.7846 O   0  0  0  0  0  0  0  0  0  0  0  0
   -0.6007    0.8921    1.0525 O   0  0  0  0  0  0  0  0  0  0  0  0
    0.9783   -1.2859    2.5160 H   0  0  0  0  0  0  0  0  0  0  0  0
   -1.4517   -0.9288    1.2824 H   0  0  0  0  0  0  0  0  0  0  0  0
   -1.1174   -0.4517   -0.4012 H   0  0  0  0  0  0  0  0  0  0  0  0
    0.3804    2.6488    0.6747 H   0  0  0  0  0  0  0  0  0  0  0  0
    1.4134    0.0940   -0.5973 H   0  0  0  0  0  0  0  0  0  0  0  0
    2.0748    1.7960   -0.8196 H   0  0  0  0  0  0  0  0  0  0  0  0
  1  4  1  0
  1  6  1  0
  1  8  1  0
  1  9  1  0
  2  3  2  0
  2 11  1  0
  2 12  1  0
  3  6  1  0
  3 10  1  0
  4  5  1  0
  5  7  1  0
M  END
