OOCOC=C_9
     RDKit          3D

 12 11  0  0  0  0  0  0  0  0999 V2000
    0.0782   -0.7097    0.5550 C   0  0  0  0  0  0  0  0  0  0  0  0
    0.5020    1.7134   -0.7638 C   0  0  0  0  0  0  0  0  0  0  0  0
    1.0309    1.4243    0.4169 C   0  0  0  0  0  0  0  0  0  0  0  0
   -0.0893   -1.8040    1.3908 O   0  0  0  0  0  0  0  0  0  0  0  0
   -0.3490   -1.2995    2.7116 O   0  0  0  0  0  0  0  0  0  0  0  0
    0.9135    0.2549    1.1445 O   0  0  0  0  0  0  0  0  0  0  0  0
    0.4991   -0.8779    2.9510 H   0  0  0  0  0  0  0  0  0  0  0  0
   -0.9132   -0.2711    0.3937 H   0  0  0  0  0  0  0  0  0  0  0  0
    0.5099   -1.0535   -0.3912 H   0  0  0  0  0  0  0  0  0  0  0  0
    1.6435    2.1627    0.9193 H   0  0  0  0  0  0  0  0  0  0  0  0
   -0.1016    1.0015   -1.2867 H   0  0  0  0  0  0  0  0  0  0  0  0
    0.6674    2.6638   -1.2291 H   0  0  0  0  0  0  0  0  0  0  0  0
  1  4  1  0
  1  6  1  0
  1  8  1  0
  1  9  1  0
  2  3  2  0
  2 11  1  0
  2 12  1  0
  3  6  1  0
  3 10  1  0
  4  5  1  0
  5  7  1  0
M  END
