OOCOC=C_4
     RDKit          3D

 12 11  0  0  0  0  0  0  0  0999 V2000
   -0.7184   -0.4725    0.6400 C   0  0  0  0  0  0  0  0  0  0  0  0
    1.2711    1.1369   -0.4260 C   0  0  0  0  0  0  0  0  0  0  0  0
    0.4897    1.5119    0.5777 C   0  0  0  0  0  0  0  0  0  0  0  0
    0.4243   -1.2504    0.5757 O   0  0  0  0  0  0  0  0  0  0  0  0
    1.0045   -1.2797    1.8987 O   0  0  0  0  0  0  0  0  0  0  0  0
   -0.4614    0.7688    1.2403 O   0  0  0  0  0  0  0  0  0  0  0  0
    1.1749   -0.3405    2.1073 H   0  0  0  0  0  0  0  0  0  0  0  0
   -1.4489   -1.0040    1.2615 H   0  0  0  0  0  0  0  0  0  0  0  0
   -1.1280   -0.3283   -0.3655 H   0  0  0  0  0  0  0  0  0  0  0  0
    0.5716    2.5210    0.9635 H   0  0  0  0  0  0  0  0  0  0  0  0
    1.2314    0.1329   -0.7971 H   0  0  0  0  0  0  0  0  0  0  0  0
    1.9806    1.8091   -0.8640 H   0  0  0  0  0  0  0  0  0  0  0  0
  1  4  1  0
  1  6  1  0
  1  8  1  0
  1  9  1  0
  2  3  2  0
  2 11  1  0
  2 12  1  0
  3  6  1  0
  3 10  1  0
  4  5  1  0
  5  7  1  0
M  END
