OC=O.CC=O
     RDKit          3D

 12 10  0  0  0  0  0  0  0  0999 V2000
   -2.3227    0.5093    0.2938 C   0  0  0  0  0  0  0  0  0  0  0  0
    0.7144   -0.0354    2.4541 C   0  0  0  0  0  0  0  0  0  0  0  0
    0.4836    1.4135    2.1772 C   0  0  0  0  0  0  0  0  0  0  0  0
   -2.7820    1.5783   -0.1841 O   0  0  0  0  0  0  0  0  0  0  0  0
   -2.7771    0.0478    1.5225 O   0  0  0  0  0  0  0  0  0  0  0  0
    1.1432    1.9880    1.3264 O   0  0  0  0  0  0  0  0  0  0  0  0
   -2.4091   -0.8104    1.9141 H   0  0  0  0  0  0  0  0  0  0  0  0
    0.0230   -0.3803    3.2511 H   0  0  0  0  0  0  0  0  0  0  0  0
   -1.5720   -0.0465   -0.2527 H   0  0  0  0  0  0  0  0  0  0  0  0
   -0.2740    1.9596    2.7297 H   0  0  0  0  0  0  0  0  0  0  0  0
    0.5294   -0.6273    1.5333 H   0  0  0  0  0  0  0  0  0  0  0  0
    1.7612   -0.1915    2.7890 H   0  0  0  0  0  0  0  0  0  0  0  0
  1  4  2  0
  1  5  1  0
  1  9  1  0
  2  3  1  0
  2  8  1  0
  2 11  1  0
  2 12  1  0
  3  6  2  0
  3 10  1  0
  5  7  1  0
M  END
