OC=O.CC=O_0
     RDKit          3D

 12 10  0  0  0  0  0  0  0  0999 V2000
   -2.2629   -0.0612    0.0998 C   0  0  0  0  0  0  0  0  0  0  0  0
    0.6741   -0.0126    2.3959 C   0  0  0  0  0  0  0  0  0  0  0  0
    0.2647    1.3339    2.8464 C   0  0  0  0  0  0  0  0  0  0  0  0
   -1.4307   -0.7913    0.5666 O   0  0  0  0  0  0  0  0  0  0  0  0
   -2.4746    1.2220    0.4044 O   0  0  0  0  0  0  0  0  0  0  0  0
   -0.6244    1.9644    2.3584 O   0  0  0  0  0  0  0  0  0  0  0  0
   -1.8323    1.5065    1.0942 H   0  0  0  0  0  0  0  0  0  0  0  0
    1.3810   -0.4839    3.0816 H   0  0  0  0  0  0  0  0  0  0  0  0
   -2.9181   -0.4810   -0.6516 H   0  0  0  0  0  0  0  0  0  0  0  0
    0.8088    1.8266    3.6444 H   0  0  0  0  0  0  0  0  0  0  0  0
   -0.2012   -0.6592    2.3067 H   0  0  0  0  0  0  0  0  0  0  0  0
    1.1335    0.0408    1.4076 H   0  0  0  0  0  0  0  0  0  0  0  0
  1  4  2  0
  1  5  1  0
  1  9  1  0
  2  3  1  0
  2  8  1  0
  2 11  1  0
  2 12  1  0
  3  6  2  0
  3 10  1  0
  5  7  1  0
M  END
