OC=O.CC=O_1
     RDKit          3D

 12 10  0  0  0  0  0  0  0  0999 V2000
   -2.3875   -0.1429    0.3188 C   0  0  0  0  0  0  0  0  0  0  0  0
    0.7335    0.0331    2.2529 C   0  0  0  0  0  0  0  0  0  0  0  0
    0.4032    1.4108    2.6724 C   0  0  0  0  0  0  0  0  0  0  0  0
   -1.4299   -0.8013    0.6240 O   0  0  0  0  0  0  0  0  0  0  0  0
   -2.6561    1.1126    0.6871 O   0  0  0  0  0  0  0  0  0  0  0  0
   -0.5785    1.9985    2.3302 O   0  0  0  0  0  0  0  0  0  0  0  0
   -1.9354    1.4470    1.2686 H   0  0  0  0  0  0  0  0  0  0  0  0
   -0.0655   -0.6511    2.5452 H   0  0  0  0  0  0  0  0  0  0  0  0
   -3.1194   -0.6110   -0.3259 H   0  0  0  0  0  0  0  0  0  0  0  0
    1.0728    1.9536    3.3303 H   0  0  0  0  0  0  0  0  0  0  0  0
    0.8102   -0.0214    1.1654 H   0  0  0  0  0  0  0  0  0  0  0  0
    1.6707   -0.3228    2.6852 H   0  0  0  0  0  0  0  0  0  0  0  0
  1  4  2  0
  1  5  1  0
  1  9  1  0
  2  3  1  0
  2  8  1  0
  2 11  1  0
  2 12  1  0
  3  6  2  0
  3 10  1  0
  5  7  1  0
M  END
