OCC(=C)OO_8
     RDKit          3D

 12 11  0  0  0  0  0  0  0  0999 V2000
    0.2191    1.0967    0.5352 C   0  0  0  0  0  0  0  0  0  0  0  0
    0.6591    0.2750   -1.7551 C   0  0  0  0  0  0  0  0  0  0  0  0
    0.7193    0.0857   -0.4401 C   0  0  0  0  0  0  0  0  0  0  0  0
    1.2343   -1.0692    0.0935 O   0  0  0  0  0  0  0  0  0  0  0  0
    1.3231   -0.9920    1.5403 O   0  0  0  0  0  0  0  0  0  0  0  0
   -0.7763    0.5423    1.3590 O   0  0  0  0  0  0  0  0  0  0  0  0
    0.3966   -1.1167    1.8192 H   0  0  0  0  0  0  0  0  0  0  0  0
   -0.1841    1.9744    0.0142 H   0  0  0  0  0  0  0  0  0  0  0  0
    1.0541    1.4233    1.1695 H   0  0  0  0  0  0  0  0  0  0  0  0
   -1.1256    1.2084    1.9932 H   0  0  0  0  0  0  0  0  0  0  0  0
    1.0227   -0.4837   -2.4174 H   0  0  0  0  0  0  0  0  0  0  0  0
    0.2472    1.1714   -2.1716 H   0  0  0  0  0  0  0  0  0  0  0  0
  1  3  1  0
  1  6  1  0
  1  8  1  0
  1  9  1  0
  2  3  2  0
  2 11  1  0
  2 12  1  0
  3  4  1  0
  4  5  1  0
  5  7  1  0
  6 10  1  0
M  END
