OCC(=C)OO
     RDKit          3D

 12 11  0  0  0  0  0  0  0  0999 V2000
   -0.2807    1.0528    0.4729 C   0  0  0  0  0  0  0  0  0  0  0  0
    0.9464    0.4174   -1.5687 C   0  0  0  0  0  0  0  0  0  0  0  0
    0.5603    0.1019   -0.3335 C   0  0  0  0  0  0  0  0  0  0  0  0
    0.9806   -1.1126    0.2124 O   0  0  0  0  0  0  0  0  0  0  0  0
    0.6605   -1.4623    1.4656 O   0  0  0  0  0  0  0  0  0  0  0  0
    0.5447    1.7767    1.3409 O   0  0  0  0  0  0  0  0  0  0  0  0
    1.0791   -2.3510    1.5899 H   0  0  0  0  0  0  0  0  0  0  0  0
   -1.0307    0.4758    1.0574 H   0  0  0  0  0  0  0  0  0  0  0  0
   -0.8356    1.7529   -0.1924 H   0  0  0  0  0  0  0  0  0  0  0  0
   -0.0561    2.3736    1.8584 H   0  0  0  0  0  0  0  0  0  0  0  0
    1.5624   -0.2663   -2.1388 H   0  0  0  0  0  0  0  0  0  0  0  0
    0.6586    1.3568   -2.0243 H   0  0  0  0  0  0  0  0  0  0  0  0
  1  3  1  0
  1  6  1  0
  1  8  1  0
  1  9  1  0
  2  3  2  0
  2 11  1  0
  2 12  1  0
  3  4  1  0
  4  5  1  0
  5  7  1  0
  6 10  1  0
M  END
