OCC(=C)OO_2
     RDKit          3D

 12 11  0  0  0  0  0  0  0  0999 V2000
   -0.2278    1.6054    0.3260 C   0  0  0  0  0  0  0  0  0  0  0  0
    0.6001   -0.0717   -1.2897 C   0  0  0  0  0  0  0  0  0  0  0  0
    0.5331    0.3728   -0.0405 C   0  0  0  0  0  0  0  0  0  0  0  0
    1.1740   -0.2737    0.9861 O   0  0  0  0  0  0  0  0  0  0  0  0
    1.7265   -1.5577    0.5418 O   0  0  0  0  0  0  0  0  0  0  0  0
   -0.7681    1.5078    1.6201 O   0  0  0  0  0  0  0  0  0  0  0  0
    1.2520   -2.2098    1.0838 H   0  0  0  0  0  0  0  0  0  0  0  0
   -1.0596    1.7817   -0.3668 H   0  0  0  0  0  0  0  0  0  0  0  0
    0.4292    2.4840    0.2915 H   0  0  0  0  0  0  0  0  0  0  0  0
   -0.1445    0.9936    2.1831 H   0  0  0  0  0  0  0  0  0  0  0  0
    1.1706   -0.9526   -1.5037 H   0  0  0  0  0  0  0  0  0  0  0  0
    0.1042    0.4359   -2.0919 H   0  0  0  0  0  0  0  0  0  0  0  0
  1  3  1  0
  1  6  1  0
  1  8  1  0
  1  9  1  0
  2  3  2  0
  2 11  1  0
  2 12  1  0
  3  4  1  0
  4  5  1  0
  5  7  1  0
  6 10  1  0
M  END
