OCC(=C)OO_1
     RDKit          3D

 12 11  0  0  0  0  0  0  0  0999 V2000
   -0.3819    0.8187    0.4628 C   0  0  0  0  0  0  0  0  0  0  0  0
    0.9073    0.4962   -1.6251 C   0  0  0  0  0  0  0  0  0  0  0  0
    0.6176    0.1116   -0.3859 C   0  0  0  0  0  0  0  0  0  0  0  0
    1.2396   -0.9620    0.2037 O   0  0  0  0  0  0  0  0  0  0  0  0
    0.4789   -1.4547    1.3390 O   0  0  0  0  0  0  0  0  0  0  0  0
    0.1593    1.1298    1.7188 O   0  0  0  0  0  0  0  0  0  0  0  0
    0.7006   -0.8331    2.0572 H   0  0  0  0  0  0  0  0  0  0  0  0
   -1.2444    0.1643    0.6416 H   0  0  0  0  0  0  0  0  0  0  0  0
   -0.7487    1.7367   -0.0140 H   0  0  0  0  0  0  0  0  0  0  0  0
    1.0045    1.6182    1.6078 H   0  0  0  0  0  0  0  0  0  0  0  0
    1.6363   -0.0468   -2.1905 H   0  0  0  0  0  0  0  0  0  0  0  0
    0.4204    1.3367   -2.0753 H   0  0  0  0  0  0  0  0  0  0  0  0
  1  3  1  0
  1  6  1  0
  1  8  1  0
  1  9  1  0
  2  3  2  0
  2 11  1  0
  2 12  1  0
  3  4  1  0
  4  5  1  0
  5  7  1  0
  6 10  1  0
M  END
