OCC(=C)OO_5
     RDKit          3D

 12 11  0  0  0  0  0  0  0  0999 V2000
   -0.0517    1.6762    0.3654 C   0  0  0  0  0  0  0  0  0  0  0  0
    0.5885   -0.0592   -1.2756 C   0  0  0  0  0  0  0  0  0  0  0  0
    0.4243    0.3107   -0.0114 C   0  0  0  0  0  0  0  0  0  0  0  0
    0.6843   -0.5448    1.0286 O   0  0  0  0  0  0  0  0  0  0  0  0
    1.1702   -1.8425    0.5439 O   0  0  0  0  0  0  0  0  0  0  0  0
   -0.9053    1.6286    1.4826 O   0  0  0  0  0  0  0  0  0  0  0  0
    2.0312   -1.9430    0.9832 H   0  0  0  0  0  0  0  0  0  0  0  0
   -0.6057    2.1484   -0.4549 H   0  0  0  0  0  0  0  0  0  0  0  0
    0.8002    2.3231    0.6109 H   0  0  0  0  0  0  0  0  0  0  0  0
   -0.6454    0.8630    2.0454 H   0  0  0  0  0  0  0  0  0  0  0  0
    0.9163   -1.0554   -1.4926 H   0  0  0  0  0  0  0  0  0  0  0  0
    0.3827    0.6104   -2.0858 H   0  0  0  0  0  0  0  0  0  0  0  0
  1  3  1  0
  1  6  1  0
  1  8  1  0
  1  9  1  0
  2  3  2  0
  2 11  1  0
  2 12  1  0
  3  4  1  0
  4  5  1  0
  5  7  1  0
  6 10  1  0
M  END
