OCC(=C)OO_6
     RDKit          3D

 12 11  0  0  0  0  0  0  0  0999 V2000
   -0.0127    1.6802    0.3744 C   0  0  0  0  0  0  0  0  0  0  0  0
    0.5463   -0.0794   -1.2687 C   0  0  0  0  0  0  0  0  0  0  0  0
    0.6103    0.3818   -0.0254 C   0  0  0  0  0  0  0  0  0  0  0  0
    1.2434   -0.3240    0.9670 O   0  0  0  0  0  0  0  0  0  0  0  0
    1.6458   -1.6519    0.4980 O   0  0  0  0  0  0  0  0  0  0  0  0
   -1.0340    1.4962    1.3221 O   0  0  0  0  0  0  0  0  0  0  0  0
    1.1644   -2.2582    1.0853 H   0  0  0  0  0  0  0  0  0  0  0  0
   -0.4518    2.1955   -0.4880 H   0  0  0  0  0  0  0  0  0  0  0  0
    0.7457    2.3465    0.8055 H   0  0  0  0  0  0  0  0  0  0  0  0
   -0.7210    0.8806    2.0191 H   0  0  0  0  0  0  0  0  0  0  0  0
    1.0101   -1.0152   -1.5067 H   0  0  0  0  0  0  0  0  0  0  0  0
    0.0431    0.4637   -2.0428 H   0  0  0  0  0  0  0  0  0  0  0  0
  1  3  1  0
  1  6  1  0
  1  8  1  0
  1  9  1  0
  2  3  2  0
  2 11  1  0
  2 12  1  0
  3  4  1  0
  4  5  1  0
  5  7  1  0
  6 10  1  0
M  END
