OCC(=C)OO_7
     RDKit          3D

 12 11  0  0  0  0  0  0  0  0999 V2000
   -0.3752    0.9818    0.3838 C   0  0  0  0  0  0  0  0  0  0  0  0
    0.8188    0.3861   -1.6746 C   0  0  0  0  0  0  0  0  0  0  0  0
    0.5886    0.1362   -0.3854 C   0  0  0  0  0  0  0  0  0  0  0  0
    1.2236   -0.9320    0.2177 O   0  0  0  0  0  0  0  0  0  0  0  0
    1.3374   -0.8547    1.6629 O   0  0  0  0  0  0  0  0  0  0  0  0
   -0.1777    0.9654    1.7691 O   0  0  0  0  0  0  0  0  0  0  0  0
    0.4671   -1.1663    1.9717 H   0  0  0  0  0  0  0  0  0  0  0  0
   -1.4017    0.6399    0.2028 H   0  0  0  0  0  0  0  0  0  0  0  0
   -0.3194    2.0259    0.0488 H   0  0  0  0  0  0  0  0  0  0  0  0
    0.7880    0.9667    1.9592 H   0  0  0  0  0  0  0  0  0  0  0  0
    1.5014   -0.2279   -2.2274 H   0  0  0  0  0  0  0  0  0  0  0  0
    0.3385    1.1946   -2.1889 H   0  0  0  0  0  0  0  0  0  0  0  0
  1  3  1  0
  1  6  1  0
  1  8  1  0
  1  9  1  0
  2  3  2  0
  2 11  1  0
  2 12  1  0
  3  4  1  0
  4  5  1  0
  5  7  1  0
  6 10  1  0
M  END
