OCC(=C)OO_9
     RDKit          3D

 12 11  0  0  0  0  0  0  0  0999 V2000
   -0.1284    1.2644    0.8886 C   0  0  0  0  0  0  0  0  0  0  0  0
    1.1014    0.2378   -0.9838 C   0  0  0  0  0  0  0  0  0  0  0  0
    0.5696    0.1177    0.2260 C   0  0  0  0  0  0  0  0  0  0  0  0
    0.6537   -1.0655    0.9237 O   0  0  0  0  0  0  0  0  0  0  0  0
    1.2622   -2.1184    0.1121 O   0  0  0  0  0  0  0  0  0  0  0  0
   -0.4299    2.3091   -0.0142 O   0  0  0  0  0  0  0  0  0  0  0  0
    0.5713   -2.8008    0.0695 H   0  0  0  0  0  0  0  0  0  0  0  0
    0.5063    1.6592    1.6921 H   0  0  0  0  0  0  0  0  0  0  0  0
   -1.0608    0.9037    1.3414 H   0  0  0  0  0  0  0  0  0  0  0  0
   -0.9001    3.0457    0.4366 H   0  0  0  0  0  0  0  0  0  0  0  0
    1.6094   -0.5962   -1.4246 H   0  0  0  0  0  0  0  0  0  0  0  0
    1.0349    1.1592   -1.5276 H   0  0  0  0  0  0  0  0  0  0  0  0
  1  3  1  0
  1  6  1  0
  1  8  1  0
  1  9  1  0
  2  3  2  0
  2 11  1  0
  2 12  1  0
  3  4  1  0
  4  5  1  0
  5  7  1  0
  6 10  1  0
M  END
