OCC(=C)OO_11
     RDKit          3D

 12 11  0  0  0  0  0  0  0  0999 V2000
   -0.1595    0.8773    0.6242 C   0  0  0  0  0  0  0  0  0  0  0  0
    1.1068    0.5515   -1.4600 C   0  0  0  0  0  0  0  0  0  0  0  0
    0.5704    0.0262   -0.3631 C   0  0  0  0  0  0  0  0  0  0  0  0
    0.6544   -1.3259   -0.1127 O   0  0  0  0  0  0  0  0  0  0  0  0
    0.1463   -1.6651    1.2199 O   0  0  0  0  0  0  0  0  0  0  0  0
    0.3316    2.2017    0.6701 O   0  0  0  0  0  0  0  0  0  0  0  0
    0.8916   -2.1310    1.6339 H   0  0  0  0  0  0  0  0  0  0  0  0
   -0.0538    0.4245    1.6178 H   0  0  0  0  0  0  0  0  0  0  0  0
   -1.2277    0.8956    0.3730 H   0  0  0  0  0  0  0  0  0  0  0  0
   -0.1394    2.7342    1.3495 H   0  0  0  0  0  0  0  0  0  0  0  0
    1.6199   -0.0773   -2.1590 H   0  0  0  0  0  0  0  0  0  0  0  0
    1.0490    1.6040   -1.6539 H   0  0  0  0  0  0  0  0  0  0  0  0
  1  3  1  0
  1  6  1  0
  1  8  1  0
  1  9  1  0
  2  3  2  0
  2 11  1  0
  2 12  1  0
  3  4  1  0
  4  5  1  0
  5  7  1  0
  6 10  1  0
M  END
