OCC(=C)OO_3
     RDKit          3D

 12 11  0  0  0  0  0  0  0  0999 V2000
    0.2317    1.5330    0.8652 C   0  0  0  0  0  0  0  0  0  0  0  0
    0.8772    0.1851   -1.0870 C   0  0  0  0  0  0  0  0  0  0  0  0
    0.5149    0.2301    0.1887 C   0  0  0  0  0  0  0  0  0  0  0  0
    0.3642   -0.9204    0.9273 O   0  0  0  0  0  0  0  0  0  0  0  0
    0.7216   -2.1048    0.1461 O   0  0  0  0  0  0  0  0  0  0  0  0
   -0.8458    2.2210    0.2762 O   0  0  0  0  0  0  0  0  0  0  0  0
    1.4148   -2.5298    0.6790 H   0  0  0  0  0  0  0  0  0  0  0  0
    1.1081    2.1897    0.8165 H   0  0  0  0  0  0  0  0  0  0  0  0
    0.0065    1.3661    1.9265 H   0  0  0  0  0  0  0  0  0  0  0  0
   -1.6302    1.6329    0.2277 H   0  0  0  0  0  0  0  0  0  0  0  0
    1.0509   -0.7641   -1.5532 H   0  0  0  0  0  0  0  0  0  0  0  0
    0.9755    1.0770   -1.6732 H   0  0  0  0  0  0  0  0  0  0  0  0
  1  3  1  0
  1  6  1  0
  1  8  1  0
  1  9  1  0
  2  3  2  0
  2 11  1  0
  2 12  1  0
  3  4  1  0
  4  5  1  0
  5  7  1  0
  6 10  1  0
M  END
