OCC=C=O.O_1
     RDKit          3D

 12 10  0  0  0  0  0  0  0  0999 V2000
   -0.4192    0.1140    2.0725 C   0  0  0  0  0  0  0  0  0  0  0  0
   -0.0106    1.3973    1.4503 C   0  0  0  0  0  0  0  0  0  0  0  0
   -0.5741    1.8326    0.3410 C   0  0  0  0  0  0  0  0  0  0  0  0
    0.6018   -0.4965    2.8255 O   0  0  0  0  0  0  0  0  0  0  0  0
   -2.1955   -0.6703   -0.4994 O   0  0  0  0  0  0  0  0  0  0  0  0
   -1.1456    2.0657   -0.6531 O   0  0  0  0  0  0  0  0  0  0  0  0
   -2.7870   -0.8635   -1.2436 H   0  0  0  0  0  0  0  0  0  0  0  0
   -1.2648    0.2728    2.7555 H   0  0  0  0  0  0  0  0  0  0  0  0
   -0.7597   -0.6018    1.3083 H   0  0  0  0  0  0  0  0  0  0  0  0
   -1.8992    0.2516   -0.6367 H   0  0  0  0  0  0  0  0  0  0  0  0
    1.3926   -0.6594    2.2679 H   0  0  0  0  0  0  0  0  0  0  0  0
    0.6802    2.0301    1.9781 H   0  0  0  0  0  0  0  0  0  0  0  0
  1  2  1  0
  1  4  1  0
  1  8  1  0
  1  9  1  0
  2  3  2  0
  2 12  1  0
  3  6  2  0
  4 11  1  0
  5  7  1  0
  5 10  1  0
M  END
