OCC=C=O.O_2
     RDKit          3D

 12 10  0  0  0  0  0  0  0  0999 V2000
    1.0173   -0.1028    1.9364 C   0  0  0  0  0  0  0  0  0  0  0  0
    0.4296    0.7441    0.8714 C   0  0  0  0  0  0  0  0  0  0  0  0
   -0.8732    0.9266    0.8010 C   0  0  0  0  0  0  0  0  0  0  0  0
    0.8949    0.4588    3.2218 O   0  0  0  0  0  0  0  0  0  0  0  0
   -3.7309   -0.0151   -1.2998 O   0  0  0  0  0  0  0  0  0  0  0  0
   -2.0276    1.1093    0.7796 O   0  0  0  0  0  0  0  0  0  0  0  0
   -3.1549    0.3599   -0.6016 H   0  0  0  0  0  0  0  0  0  0  0  0
    0.5381   -1.0922    1.9480 H   0  0  0  0  0  0  0  0  0  0  0  0
    2.0898   -0.2706    1.7661 H   0  0  0  0  0  0  0  0  0  0  0  0
   -4.5952    0.4115   -1.1749 H   0  0  0  0  0  0  0  0  0  0  0  0
   -0.0329    0.7243    3.3957 H   0  0  0  0  0  0  0  0  0  0  0  0
    1.0639    1.4191    0.3226 H   0  0  0  0  0  0  0  0  0  0  0  0
  1  2  1  0
  1  4  1  0
  1  8  1  0
  1  9  1  0
  2  3  2  0
  2 12  1  0
  3  6  2  0
  4 11  1  0
  5  7  1  0
  5 10  1  0
M  END
