OCC=C=O.O_8
     RDKit          3D

 12 10  0  0  0  0  0  0  0  0999 V2000
   -0.6368    0.3762    2.2580 C   0  0  0  0  0  0  0  0  0  0  0  0
   -0.0908    1.5078    1.4672 C   0  0  0  0  0  0  0  0  0  0  0  0
   -0.5553    1.7831    0.2647 C   0  0  0  0  0  0  0  0  0  0  0  0
   -0.3687   -0.8895    1.6964 O   0  0  0  0  0  0  0  0  0  0  0  0
   -1.9355   -0.8706   -0.8569 O   0  0  0  0  0  0  0  0  0  0  0  0
   -1.0054    1.9270   -0.8055 O   0  0  0  0  0  0  0  0  0  0  0  0
   -1.7186    0.0694   -1.0151 H   0  0  0  0  0  0  0  0  0  0  0  0
   -0.2661    0.3857    3.2929 H   0  0  0  0  0  0  0  0  0  0  0  0
   -1.7315    0.4573    2.3144 H   0  0  0  0  0  0  0  0  0  0  0  0
   -1.4792   -1.0542   -0.0106 H   0  0  0  0  0  0  0  0  0  0  0  0
    0.5955   -1.0189    1.5719 H   0  0  0  0  0  0  0  0  0  0  0  0
    0.8113    1.9995    1.7887 H   0  0  0  0  0  0  0  0  0  0  0  0
  1  2  1  0
  1  4  1  0
  1  8  1  0
  1  9  1  0
  2  3  2  0
  2 12  1  0
  3  6  2  0
  4 11  1  0
  5  7  1  0
  5 10  1  0
M  END
