OCC=C=O.O_4
     RDKit          3D

 12 10  0  0  0  0  0  0  0  0999 V2000
    0.3585    0.1710    2.7814 C   0  0  0  0  0  0  0  0  0  0  0  0
   -0.5890    0.9638    1.9625 C   0  0  0  0  0  0  0  0  0  0  0  0
   -0.7907    0.6651    0.6954 C   0  0  0  0  0  0  0  0  0  0  0  0
    1.6984    0.3151    2.3732 O   0  0  0  0  0  0  0  0  0  0  0  0
   -3.5051    0.1954   -1.7375 O   0  0  0  0  0  0  0  0  0  0  0  0
   -0.9056    0.3889   -0.4345 O   0  0  0  0  0  0  0  0  0  0  0  0
   -2.6335    0.2607   -1.2946 H   0  0  0  0  0  0  0  0  0  0  0  0
    0.3169    0.4670    3.8387 H   0  0  0  0  0  0  0  0  0  0  0  0
    0.1012   -0.8970    2.7390 H   0  0  0  0  0  0  0  0  0  0  0  0
   -3.3044    0.0488   -2.6770 H   0  0  0  0  0  0  0  0  0  0  0  0
    1.7832    0.1639    1.4081 H   0  0  0  0  0  0  0  0  0  0  0  0
   -0.9109    1.9301    2.3115 H   0  0  0  0  0  0  0  0  0  0  0  0
  1  2  1  0
  1  4  1  0
  1  8  1  0
  1  9  1  0
  2  3  2  0
  2 12  1  0
  3  6  2  0
  4 11  1  0
  5  7  1  0
  5 10  1  0
M  END
