OCC=C=O.O_7
     RDKit          3D

 12 10  0  0  0  0  0  0  0  0999 V2000
   -0.1718    0.1877    1.9082 C   0  0  0  0  0  0  0  0  0  0  0  0
    0.1238    1.4546    1.1969 C   0  0  0  0  0  0  0  0  0  0  0  0
   -0.6683    1.8991    0.2415 C   0  0  0  0  0  0  0  0  0  0  0  0
    0.9487   -0.3149    2.6043 O   0  0  0  0  0  0  0  0  0  0  0  0
   -2.3352   -0.6619   -0.2835 O   0  0  0  0  0  0  0  0  0  0  0  0
   -1.4469    2.1272   -0.6017 O   0  0  0  0  0  0  0  0  0  0  0  0
   -2.1069    0.2727   -0.4587 H   0  0  0  0  0  0  0  0  0  0  0  0
   -0.9911    0.3451    2.6239 H   0  0  0  0  0  0  0  0  0  0  0  0
   -0.5043   -0.5727    1.1852 H   0  0  0  0  0  0  0  0  0  0  0  0
   -2.9843   -0.8987   -0.9646 H   0  0  0  0  0  0  0  0  0  0  0  0
    0.7499   -1.1710    3.0428 H   0  0  0  0  0  0  0  0  0  0  0  0
    1.0054    2.0056    1.4720 H   0  0  0  0  0  0  0  0  0  0  0  0
  1  2  1  0
  1  4  1  0
  1  8  1  0
  1  9  1  0
  2  3  2  0
  2 12  1  0
  3  6  2  0
  4 11  1  0
  5  7  1  0
  5 10  1  0
M  END
