OCC=C=O.O_0
     RDKit          3D

 12 10  0  0  0  0  0  0  0  0999 V2000
   -0.2237    0.3509    2.4205 C   0  0  0  0  0  0  0  0  0  0  0  0
    0.0293    1.5548    1.5906 C   0  0  0  0  0  0  0  0  0  0  0  0
   -0.7544    1.8484    0.5727 C   0  0  0  0  0  0  0  0  0  0  0  0
    0.0047   -0.8635    1.7425 O   0  0  0  0  0  0  0  0  0  0  0  0
   -1.6958   -0.8958   -0.6235 O   0  0  0  0  0  0  0  0  0  0  0  0
   -1.4708    1.9676   -0.3447 O   0  0  0  0  0  0  0  0  0  0  0  0
   -2.1826   -1.1602   -1.4178 H   0  0  0  0  0  0  0  0  0  0  0  0
    0.4255    0.3404    3.3065 H   0  0  0  0  0  0  0  0  0  0  0  0
   -1.2596    0.3496    2.7880 H   0  0  0  0  0  0  0  0  0  0  0  0
   -1.6934    0.0826   -0.6330 H   0  0  0  0  0  0  0  0  0  0  0  0
   -0.5568   -0.9276    0.9333 H   0  0  0  0  0  0  0  0  0  0  0  0
    0.9965    2.0257    1.6311 H   0  0  0  0  0  0  0  0  0  0  0  0
  1  2  1  0
  1  4  1  0
  1  8  1  0
  1  9  1  0
  2  3  2  0
  2 12  1  0
  3  6  2  0
  4 11  1  0
  5  7  1  0
  5 10  1  0
M  END
