OCC=C=O.O_9
     RDKit          3D

 12 10  0  0  0  0  0  0  0  0999 V2000
    0.5806   -0.1851    2.3626 C   0  0  0  0  0  0  0  0  0  0  0  0
   -0.2676    0.7977    1.6488 C   0  0  0  0  0  0  0  0  0  0  0  0
   -0.6895    0.6120    0.4136 C   0  0  0  0  0  0  0  0  0  0  0  0
    1.2549    0.3566    3.4750 O   0  0  0  0  0  0  0  0  0  0  0  0
   -3.8577    0.5689   -1.4655 O   0  0  0  0  0  0  0  0  0  0  0  0
   -1.0523    0.4454   -0.6852 O   0  0  0  0  0  0  0  0  0  0  0  0
   -3.8557    0.4426   -2.4292 H   0  0  0  0  0  0  0  0  0  0  0  0
   -0.0340   -1.0137    2.7407 H   0  0  0  0  0  0  0  0  0  0  0  0
    1.3247   -0.6233    1.6824 H   0  0  0  0  0  0  0  0  0  0  0  0
   -2.9160    0.5277   -1.1981 H   0  0  0  0  0  0  0  0  0  0  0  0
    1.8047    1.1245    3.2089 H   0  0  0  0  0  0  0  0  0  0  0  0
   -0.6734    1.6197    2.2121 H   0  0  0  0  0  0  0  0  0  0  0  0
  1  2  1  0
  1  4  1  0
  1  8  1  0
  1  9  1  0
  2  3  2  0
  2 12  1  0
  3  6  2  0
  4 11  1  0
  5  7  1  0
  5 10  1  0
M  END
