C1OCOC1=O.[H][H]_15
     RDKit          3D

 12 11  0  0  0  0  0  0  0  0999 V2000
   -0.4893   -0.0889    0.7352 C   0  0  0  0  0  0  0  0  0  0  0  0
   -0.0417    1.8195    1.8605 C   0  0  0  0  0  0  0  0  0  0  0  0
   -1.2345    1.1128    2.4581 C   0  0  0  0  0  0  0  0  0  0  0  0
    0.3888    1.0197    0.7798 O   0  0  0  0  0  0  0  0  0  0  0  0
   -1.4660   -0.0240    1.7528 O   0  0  0  0  0  0  0  0  0  0  0  0
   -1.8424    1.5413    3.4107 O   0  0  0  0  0  0  0  0  0  0  0  0
    2.1907    1.3086   -1.0844 H   0  0  0  0  0  0  0  0  0  0  0  0
    0.0960   -1.0109    0.8665 H   0  0  0  0  0  0  0  0  0  0  0  0
   -0.9971   -0.1004   -0.2406 H   0  0  0  0  0  0  0  0  0  0  0  0
    2.4617    1.8262   -0.5723 H   0  0  0  0  0  0  0  0  0  0  0  0
    0.7814    1.9057    2.5811 H   0  0  0  0  0  0  0  0  0  0  0  0
   -0.3094    2.8119    1.4758 H   0  0  0  0  0  0  0  0  0  0  0  0
  1  4  1  0
  1  5  1  0
  1  8  1  0
  1  9  1  0
  2  3  1  0
  2  4  1  0
  2 11  1  0
  2 12  1  0
  3  5  1  0
  3  6  2  0
  7 10  1  0
M  END
