C1OCOC1=O.[H][H]
     RDKit          3D

 12 11  0  0  0  0  0  0  0  0999 V2000
   -0.1512   -0.3569    0.9207 C   0  0  0  0  0  0  0  0  0  0  0  0
    0.3423    1.4483    2.2447 C   0  0  0  0  0  0  0  0  0  0  0  0
   -1.0137    1.5531    1.7106 C   0  0  0  0  0  0  0  0  0  0  0  0
    0.8623    0.2374    1.7267 O   0  0  0  0  0  0  0  0  0  0  0  0
   -1.2918    0.4786    0.9287 O   0  0  0  0  0  0  0  0  0  0  0  0
   -1.8203    2.4940    1.9299 O   0  0  0  0  0  0  0  0  0  0  0  0
    0.4302    2.2913   -1.0146 H   0  0  0  0  0  0  0  0  0  0  0  0
   -0.4164   -1.3539    1.3310 H   0  0  0  0  0  0  0  0  0  0  0  0
    0.2196   -0.4722   -0.1194 H   0  0  0  0  0  0  0  0  0  0  0  0
    1.0978    2.0917   -0.8895 H   0  0  0  0  0  0  0  0  0  0  0  0
    0.3188    1.4063    3.3539 H   0  0  0  0  0  0  0  0  0  0  0  0
    0.9607    2.3037    1.9004 H   0  0  0  0  0  0  0  0  0  0  0  0
  1  4  1  0
  1  5  1  0
  1  8  1  0
  1  9  1  0
  2  3  1  0
  2  4  1  0
  2 11  1  0
  2 12  1  0
  3  5  1  0
  3  6  2  0
  7 10  1  0
M  END
