C1OCOC1=O.[H][H]_12
     RDKit          3D

 12 11  0  0  0  0  0  0  0  0999 V2000
   -0.4036    0.0731    0.6899 C   0  0  0  0  0  0  0  0  0  0  0  0
    0.0652    1.7529    2.1276 C   0  0  0  0  0  0  0  0  0  0  0  0
   -1.3065    1.1834    2.3986 C   0  0  0  0  0  0  0  0  0  0  0  0
    0.5901    1.0162    1.0437 O   0  0  0  0  0  0  0  0  0  0  0  0
   -1.5446    0.1808    1.5146 O   0  0  0  0  0  0  0  0  0  0  0  0
   -2.0276    1.5969    3.2758 O   0  0  0  0  0  0  0  0  0  0  0  0
    1.8962    1.0541   -1.4198 H   0  0  0  0  0  0  0  0  0  0  0  0
    0.0138   -0.9392    0.7958 H   0  0  0  0  0  0  0  0  0  0  0  0
   -0.7053    0.2492   -0.3533 H   0  0  0  0  0  0  0  0  0  0  0  0
    2.2126    1.5136   -0.8792 H   0  0  0  0  0  0  0  0  0  0  0  0
    0.7328    1.6298    2.9899 H   0  0  0  0  0  0  0  0  0  0  0  0
    0.0151    2.8107    1.8395 H   0  0  0  0  0  0  0  0  0  0  0  0
  1  4  1  0
  1  5  1  0
  1  8  1  0
  1  9  1  0
  2  3  1  0
  2  4  1  0
  2 11  1  0
  2 12  1  0
  3  5  1  0
  3  6  2  0
  7 10  1  0
M  END
