C1OCOC1=O.[H][H]_4
     RDKit          3D

 12 11  0  0  0  0  0  0  0  0999 V2000
    0.2270   -0.3610    1.0643 C   0  0  0  0  0  0  0  0  0  0  0  0
    0.0842    1.1609    2.7293 C   0  0  0  0  0  0  0  0  0  0  0  0
   -0.0639    1.8258    1.3820 C   0  0  0  0  0  0  0  0  0  0  0  0
    0.2648   -0.2154    2.4713 O   0  0  0  0  0  0  0  0  0  0  0  0
    0.0286    0.8770    0.4153 O   0  0  0  0  0  0  0  0  0  0  0  0
   -0.2354    3.0149    1.2510 O   0  0  0  0  0  0  0  0  0  0  0  0
   -0.6588    2.5914   -1.3824 H   0  0  0  0  0  0  0  0  0  0  0  0
   -0.6014   -1.0345    0.7990 H   0  0  0  0  0  0  0  0  0  0  0  0
    1.1828   -0.7872    0.7253 H   0  0  0  0  0  0  0  0  0  0  0  0
   -0.8368    2.2300   -2.0466 H   0  0  0  0  0  0  0  0  0  0  0  0
   -0.8161    1.2861    3.3442 H   0  0  0  0  0  0  0  0  0  0  0  0
    0.9633    1.5334    3.2704 H   0  0  0  0  0  0  0  0  0  0  0  0
  1  4  1  0
  1  5  1  0
  1  8  1  0
  1  9  1  0
  2  3  1  0
  2  4  1  0
  2 11  1  0
  2 12  1  0
  3  5  1  0
  3  6  2  0
  7 10  1  0
M  END
