C1OCOC1=O.[H][H]_11
     RDKit          3D

 12 11  0  0  0  0  0  0  0  0999 V2000
   -0.4203    0.2087    0.6127 C   0  0  0  0  0  0  0  0  0  0  0  0
   -0.0202    1.8421    2.1228 C   0  0  0  0  0  0  0  0  0  0  0  0
   -1.2680    1.0730    2.4841 C   0  0  0  0  0  0  0  0  0  0  0  0
    0.4733    1.2571    0.9366 O   0  0  0  0  0  0  0  0  0  0  0  0
   -1.4686    0.1055    1.5528 O   0  0  0  0  0  0  0  0  0  0  0  0
   -1.9369    1.3265    3.4582 O   0  0  0  0  0  0  0  0  0  0  0  0
    2.2714    1.3271   -0.9119 H   0  0  0  0  0  0  0  0  0  0  0  0
    0.1357   -0.7404    0.5993 H   0  0  0  0  0  0  0  0  0  0  0  0
   -0.8542    0.4055   -0.3788 H   0  0  0  0  0  0  0  0  0  0  0  0
    2.1159    0.6609   -1.2803 H   0  0  0  0  0  0  0  0  0  0  0  0
    0.7487    1.7558    2.9012 H   0  0  0  0  0  0  0  0  0  0  0  0
   -0.2385    2.8996    1.9265 H   0  0  0  0  0  0  0  0  0  0  0  0
  1  4  1  0
  1  5  1  0
  1  8  1  0
  1  9  1  0
  2  3  1  0
  2  4  1  0
  2 11  1  0
  2 12  1  0
  3  5  1  0
  3  6  2  0
  7 10  1  0
M  END
