C1OCOC1=O.[H][H]_9
     RDKit          3D

 12 11  0  0  0  0  0  0  0  0999 V2000
   -0.3159   -0.2172    0.8523 C   0  0  0  0  0  0  0  0  0  0  0  0
    0.1646    1.6313    2.0613 C   0  0  0  0  0  0  0  0  0  0  0  0
   -1.3121    1.3232    2.1182 C   0  0  0  0  0  0  0  0  0  0  0  0
    0.7439    0.6324    1.2489 O   0  0  0  0  0  0  0  0  0  0  0  0
   -1.5536    0.2085    1.3817 O   0  0  0  0  0  0  0  0  0  0  0  0
   -2.1001    1.9978    2.7380 O   0  0  0  0  0  0  0  0  0  0  0  0
    1.7428    2.2451   -0.8272 H   0  0  0  0  0  0  0  0  0  0  0  0
   -0.1093   -1.2352    1.2141 H   0  0  0  0  0  0  0  0  0  0  0  0
   -0.3828   -0.2139   -0.2457 H   0  0  0  0  0  0  0  0  0  0  0  0
    1.6770    1.5547   -1.1776 H   0  0  0  0  0  0  0  0  0  0  0  0
    0.6271    1.5847    3.0553 H   0  0  0  0  0  0  0  0  0  0  0  0
    0.3567    2.6102    1.6037 H   0  0  0  0  0  0  0  0  0  0  0  0
  1  4  1  0
  1  5  1  0
  1  8  1  0
  1  9  1  0
  2  3  1  0
  2  4  1  0
  2 11  1  0
  2 12  1  0
  3  5  1  0
  3  6  2  0
  7 10  1  0
M  END
