C1OCOC1=O.[H][H]_6
     RDKit          3D

 12 11  0  0  0  0  0  0  0  0999 V2000
    0.4610    0.1218    0.8705 C   0  0  0  0  0  0  0  0  0  0  0  0
   -0.0285    1.0913    2.8526 C   0  0  0  0  0  0  0  0  0  0  0  0
   -0.3222    2.0325    1.7094 C   0  0  0  0  0  0  0  0  0  0  0  0
    0.4625   -0.0967    2.2685 O   0  0  0  0  0  0  0  0  0  0  0  0
   -0.0131    1.4107    0.5428 O   0  0  0  0  0  0  0  0  0  0  0  0
   -0.7606    3.1470    1.8716 O   0  0  0  0  0  0  0  0  0  0  0  0
   -0.7583    1.6864   -1.8103 H   0  0  0  0  0  0  0  0  0  0  0  0
   -0.1918   -0.6253    0.3951 H   0  0  0  0  0  0  0  0  0  0  0  0
    1.4892    0.0182    0.4934 H   0  0  0  0  0  0  0  0  0  0  0  0
   -0.6065    0.9886   -2.1164 H   0  0  0  0  0  0  0  0  0  0  0  0
   -0.9347    0.8516    3.4233 H   0  0  0  0  0  0  0  0  0  0  0  0
    0.7412    1.4953    3.5226 H   0  0  0  0  0  0  0  0  0  0  0  0
  1  4  1  0
  1  5  1  0
  1  8  1  0
  1  9  1  0
  2  3  1  0
  2  4  1  0
  2 11  1  0
  2 12  1  0
  3  5  1  0
  3  6  2  0
  7 10  1  0
M  END
