C1OCOC1=O.[H][H]_14
     RDKit          3D

 12 11  0  0  0  0  0  0  0  0999 V2000
   -0.4702   -0.2739    0.8449 C   0  0  0  0  0  0  0  0  0  0  0  0
   -0.0286    1.7638    1.7176 C   0  0  0  0  0  0  0  0  0  0  0  0
   -1.2668    1.1698    2.3447 C   0  0  0  0  0  0  0  0  0  0  0  0
    0.4335    0.8129    0.7819 O   0  0  0  0  0  0  0  0  0  0  0  0
   -1.4932   -0.0495    1.7919 O   0  0  0  0  0  0  0  0  0  0  0  0
   -1.9089    1.7381    3.1963 O   0  0  0  0  0  0  0  0  0  0  0  0
    2.5569    1.8211   -0.3825 H   0  0  0  0  0  0  0  0  0  0  0  0
    0.0835   -1.1799    1.1322 H   0  0  0  0  0  0  0  0  0  0  0  0
   -0.9302   -0.4110   -0.1450 H   0  0  0  0  0  0  0  0  0  0  0  0
    2.0539    2.0979   -0.9059 H   0  0  0  0  0  0  0  0  0  0  0  0
    0.7604    1.9346    2.4611 H   0  0  0  0  0  0  0  0  0  0  0  0
   -0.2518    2.6975    1.1858 H   0  0  0  0  0  0  0  0  0  0  0  0
  1  4  1  0
  1  5  1  0
  1  8  1  0
  1  9  1  0
  2  3  1  0
  2  4  1  0
  2 11  1  0
  2 12  1  0
  3  5  1  0
  3  6  2  0
  7 10  1  0
M  END
