C1OCOC1=O.[H][H]_7
     RDKit          3D

 12 11  0  0  0  0  0  0  0  0999 V2000
   -0.5498   -0.0587    0.6397 C   0  0  0  0  0  0  0  0  0  0  0  0
   -0.4030    1.9972    1.5672 C   0  0  0  0  0  0  0  0  0  0  0  0
   -0.6965    0.9550    2.6192 C   0  0  0  0  0  0  0  0  0  0  0  0
   -0.3146    1.3042    0.3403 O   0  0  0  0  0  0  0  0  0  0  0  0
   -0.7769   -0.2600    2.0186 O   0  0  0  0  0  0  0  0  0  0  0  0
   -0.8272    1.2228    3.7904 O   0  0  0  0  0  0  0  0  0  0  0  0
    2.4599    1.0188   -0.4464 H   0  0  0  0  0  0  0  0  0  0  0  0
    0.3298   -0.6463    0.3381 H   0  0  0  0  0  0  0  0  0  0  0  0
   -1.4369   -0.3962    0.0836 H   0  0  0  0  0  0  0  0  0  0  0  0
    2.4117    1.7449   -0.1744 H   0  0  0  0  0  0  0  0  0  0  0  0
    0.5526    2.5035    1.7538 H   0  0  0  0  0  0  0  0  0  0  0  0
   -1.2108    2.7364    1.4930 H   0  0  0  0  0  0  0  0  0  0  0  0
  1  4  1  0
  1  5  1  0
  1  8  1  0
  1  9  1  0
  2  3  1  0
  2  4  1  0
  2 11  1  0
  2 12  1  0
  3  5  1  0
  3  6  2  0
  7 10  1  0
M  END
