C1OCOC1=O.[H][H]_1
     RDKit          3D

 12 11  0  0  0  0  0  0  0  0999 V2000
   -0.4242   -0.8670    1.5828 C   0  0  0  0  0  0  0  0  0  0  0  0
    0.6037    1.1354    1.3771 C   0  0  0  0  0  0  0  0  0  0  0  0
   -0.7992    1.1942    0.8221 C   0  0  0  0  0  0  0  0  0  0  0  0
    0.7877   -0.1845    1.8431 O   0  0  0  0  0  0  0  0  0  0  0  0
   -1.3763   -0.0263    0.9663 O   0  0  0  0  0  0  0  0  0  0  0  0
   -1.2740    2.1958    0.3405 O   0  0  0  0  0  0  0  0  0  0  0  0
    0.1368    4.2733    0.2623 H   0  0  0  0  0  0  0  0  0  0  0  0
   -0.8388   -1.2301    2.5349 H   0  0  0  0  0  0  0  0  0  0  0  0
   -0.2174   -1.7153    0.9137 H   0  0  0  0  0  0  0  0  0  0  0  0
    0.8500    4.1804    0.5560 H   0  0  0  0  0  0  0  0  0  0  0  0
    0.7353    1.8251    2.2206 H   0  0  0  0  0  0  0  0  0  0  0  0
    1.3547    1.3405    0.6036 H   0  0  0  0  0  0  0  0  0  0  0  0
  1  4  1  0
  1  5  1  0
  1  8  1  0
  1  9  1  0
  2  3  1  0
  2  4  1  0
  2 11  1  0
  2 12  1  0
  3  5  1  0
  3  6  2  0
  7 10  1  0
M  END
