C1OCOC1=O.[H][H]_2
     RDKit          3D

 12 11  0  0  0  0  0  0  0  0999 V2000
   -0.4504   -0.8215    1.6419 C   0  0  0  0  0  0  0  0  0  0  0  0
    0.7213    1.0893    1.3511 C   0  0  0  0  0  0  0  0  0  0  0  0
   -0.5151    1.0822    0.4845 C   0  0  0  0  0  0  0  0  0  0  0  0
    0.7160   -0.1348    2.0545 O   0  0  0  0  0  0  0  0  0  0  0  0
   -1.1864   -0.0795    0.6925 O   0  0  0  0  0  0  0  0  0  0  0  0
   -0.8047    1.9933   -0.2547 O   0  0  0  0  0  0  0  0  0  0  0  0
   -0.2764    4.3271    0.4683 H   0  0  0  0  0  0  0  0  0  0  0  0
   -1.0875   -0.9992    2.5209 H   0  0  0  0  0  0  0  0  0  0  0  0
   -0.1567   -1.7800    1.1891 H   0  0  0  0  0  0  0  0  0  0  0  0
    0.2393    4.3913    1.0456 H   0  0  0  0  0  0  0  0  0  0  0  0
    0.7013    1.9097    2.0798 H   0  0  0  0  0  0  0  0  0  0  0  0
    1.6377    1.1436    0.7497 H   0  0  0  0  0  0  0  0  0  0  0  0
  1  4  1  0
  1  5  1  0
  1  8  1  0
  1  9  1  0
  2  3  1  0
  2  4  1  0
  2 11  1  0
  2 12  1  0
  3  5  1  0
  3  6  2  0
  7 10  1  0
M  END
