C1OCOC1=O.[H][H]_8
     RDKit          3D

 12 11  0  0  0  0  0  0  0  0999 V2000
   -0.3032   -0.2340    0.8705 C   0  0  0  0  0  0  0  0  0  0  0  0
    0.2219    1.5721    2.1236 C   0  0  0  0  0  0  0  0  0  0  0  0
   -1.2745    1.3837    2.0567 C   0  0  0  0  0  0  0  0  0  0  0  0
    0.7847    0.5308    1.3540 O   0  0  0  0  0  0  0  0  0  0  0  0
   -1.5426    0.2903    1.2978 O   0  0  0  0  0  0  0  0  0  0  0  0
   -2.0547    2.1217    2.6109 O   0  0  0  0  0  0  0  0  0  0  0  0
    1.4148    1.7111   -1.3435 H   0  0  0  0  0  0  0  0  0  0  0  0
   -0.2080   -1.2636    1.2459 H   0  0  0  0  0  0  0  0  0  0  0  0
   -0.2797   -0.2306   -0.2292 H   0  0  0  0  0  0  0  0  0  0  0  0
    1.6555    2.2198   -0.8076 H   0  0  0  0  0  0  0  0  0  0  0  0
    0.5951    1.4869    3.1522 H   0  0  0  0  0  0  0  0  0  0  0  0
    0.5290    2.5332    1.6918 H   0  0  0  0  0  0  0  0  0  0  0  0
  1  4  1  0
  1  5  1  0
  1  8  1  0
  1  9  1  0
  2  3  1  0
  2  4  1  0
  2 11  1  0
  2 12  1  0
  3  5  1  0
  3  6  2  0
  7 10  1  0
M  END
