C1OCOC1=O.[H][H]_5
     RDKit          3D

 12 11  0  0  0  0  0  0  0  0999 V2000
   -0.2873   -0.2360    0.8627 C   0  0  0  0  0  0  0  0  0  0  0  0
    0.2181    1.5871    2.0994 C   0  0  0  0  0  0  0  0  0  0  0  0
   -1.2761    1.3824    2.0334 C   0  0  0  0  0  0  0  0  0  0  0  0
    0.7924    0.5429    1.3423 O   0  0  0  0  0  0  0  0  0  0  0  0
   -1.5323    0.2797    1.2838 O   0  0  0  0  0  0  0  0  0  0  0  0
   -2.0644    2.1167    2.5812 O   0  0  0  0  0  0  0  0  0  0  0  0
    1.1781    2.1016   -1.1043 H   0  0  0  0  0  0  0  0  0  0  0  0
   -0.1830   -1.2618    1.2463 H   0  0  0  0  0  0  0  0  0  0  0  0
   -0.2619   -0.2408   -0.2371 H   0  0  0  0  0  0  0  0  0  0  0  0
    1.8479    1.7853   -0.8702 H   0  0  0  0  0  0  0  0  0  0  0  0
    0.5913    1.5181    3.1292 H   0  0  0  0  0  0  0  0  0  0  0  0
    0.5156    2.5461    1.6563 H   0  0  0  0  0  0  0  0  0  0  0  0
  1  4  1  0
  1  5  1  0
  1  8  1  0
  1  9  1  0
  2  3  1  0
  2  4  1  0
  2 11  1  0
  2 12  1  0
  3  5  1  0
  3  6  2  0
  7 10  1  0
M  END
