C[C@H]1OOCO1
     RDKit          3D

 12 12  0  0  0  0  0  0  0  0999 V2000
   -1.5017    0.3047    0.5129 C   0  0  0  0  0  0  0  0  0  0  0  0
    1.8411    0.5589    0.8250 C   0  0  0  0  0  0  0  0  0  0  0  0
    0.5952   -0.2733    0.5511 C   0  0  1  0  0  0  0  0  0  0  0  0
   -1.3042   -0.6763    1.4870 O   0  0  0  0  0  0  0  0  0  0  0  0
   -0.0123   -0.6303    1.7581 O   0  0  0  0  0  0  0  0  0  0  0  0
   -0.3159    0.4687   -0.1970 O   0  0  0  0  0  0  0  0  0  0  0  0
    2.5655   -0.0317    1.4249 H   0  0  0  0  0  0  0  0  0  0  0  0
   -1.7883    1.2641    0.9951 H   0  0  0  0  0  0  0  0  0  0  0  0
   -2.3082   -0.0159   -0.1789 H   0  0  0  0  0  0  0  0  0  0  0  0
    0.8778   -1.1913   -0.0103 H   0  0  0  0  0  0  0  0  0  0  0  0
    2.3216    0.8467   -0.1341 H   0  0  0  0  0  0  0  0  0  0  0  0
    1.5719    1.4794    1.3857 H   0  0  0  0  0  0  0  0  0  0  0  0
  1  4  1  0
  1  6  1  0
  1  8  1  0
  1  9  1  0
  2  3  1  0
  2  7  1  0
  2 11  1  0
  2 12  1  0
  3  5  1  0
  3  6  1  0
  3 10  1  6
  4  5  1  0
M  END
