C[C@H]1OOCO1_1
     RDKit          3D

 12 12  0  0  0  0  0  0  0  0999 V2000
   -1.5939    0.2923    0.6927 C   0  0  0  0  0  0  0  0  0  0  0  0
    1.9323    0.5133    0.8155 C   0  0  0  0  0  0  0  0  0  0  0  0
    0.6078   -0.1030    0.4057 C   0  0  1  0  0  0  0  0  0  0  0  0
   -1.2744   -0.7270    1.6044 O   0  0  0  0  0  0  0  0  0  0  0  0
    0.1559   -1.0329    1.3819 O   0  0  0  0  0  0  0  0  0  0  0  0
   -0.4024    0.8928    0.2336 O   0  0  0  0  0  0  0  0  0  0  0  0
    1.8032    1.0364    1.7629 H   0  0  0  0  0  0  0  0  0  0  0  0
   -2.2108    1.0464    1.1983 H   0  0  0  0  0  0  0  0  0  0  0  0
   -2.1357   -0.1425   -0.1561 H   0  0  0  0  0  0  0  0  0  0  0  0
    0.6869   -0.6531   -0.5465 H   0  0  0  0  0  0  0  0  0  0  0  0
    2.6960   -0.2530    0.9536 H   0  0  0  0  0  0  0  0  0  0  0  0
    2.2775    1.2339    0.0735 H   0  0  0  0  0  0  0  0  0  0  0  0
  1  4  1  0
  1  6  1  0
  1  8  1  0
  1  9  1  0
  2  3  1  0
  2  7  1  0
  2 11  1  0
  2 12  1  0
  3  5  1  0
  3  6  1  0
  3 10  1  6
  4  5  1  0
M  END
