C[C@H]1OOCO1_2
     RDKit          3D

 12 12  0  0  0  0  0  0  0  0999 V2000
   -1.5620    0.3448    0.5253 C   0  0  0  0  0  0  0  0  0  0  0  0
    1.8952    0.5028    0.8454 C   0  0  0  0  0  0  0  0  0  0  0  0
    0.6258   -0.2517    0.5013 C   0  0  1  0  0  0  0  0  0  0  0  0
   -1.2982   -0.2042    1.7885 O   0  0  0  0  0  0  0  0  0  0  0  0
    0.0430   -0.8137    1.6731 O   0  0  0  0  0  0  0  0  0  0  0  0
   -0.3364    0.6073   -0.1245 O   0  0  0  0  0  0  0  0  0  0  0  0
    2.6229   -0.1517    1.3264 H   0  0  0  0  0  0  0  0  0  0  0  0
   -2.1216    1.2810    0.6461 H   0  0  0  0  0  0  0  0  0  0  0  0
   -2.1394   -0.3778   -0.0641 H   0  0  0  0  0  0  0  0  0  0  0  0
    0.8166   -1.0857   -0.1939 H   0  0  0  0  0  0  0  0  0  0  0  0
    2.3435    0.9456   -0.0444 H   0  0  0  0  0  0  0  0  0  0  0  0
    1.6530    1.3069    1.5402 H   0  0  0  0  0  0  0  0  0  0  0  0
  1  4  1  0
  1  6  1  0
  1  8  1  0
  1  9  1  0
  2  3  1  0
  2  7  1  0
  2 11  1  0
  2 12  1  0
  3  5  1  0
  3  6  1  0
  3 10  1  6
  4  5  1  0
M  END
