C[C@H]1OOCO1_0
     RDKit          3D

 12 12  0  0  0  0  0  0  0  0999 V2000
   -1.4912    0.3454    0.7222 C   0  0  0  0  0  0  0  0  0  0  0  0
    1.7645    0.5478    0.8804 C   0  0  0  0  0  0  0  0  0  0  0  0
    0.6512   -0.2561    0.2401 C   0  0  1  0  0  0  0  0  0  0  0  0
   -1.0477   -0.5179    1.7387 O   0  0  0  0  0  0  0  0  0  0  0  0
    0.1271   -1.1984    1.1604 O   0  0  0  0  0  0  0  0  0  0  0  0
   -0.4270    0.5874   -0.1855 O   0  0  0  0  0  0  0  0  0  0  0  0
    1.3713    1.0643    1.7560 H   0  0  0  0  0  0  0  0  0  0  0  0
   -1.8208    1.2930    1.1654 H   0  0  0  0  0  0  0  0  0  0  0  0
   -2.3169   -0.1377    0.1855 H   0  0  0  0  0  0  0  0  0  0  0  0
    0.9965   -0.8182   -0.6436 H   0  0  0  0  0  0  0  0  0  0  0  0
    2.5772   -0.1008    1.2092 H   0  0  0  0  0  0  0  0  0  0  0  0
    2.1582    1.2951    0.1907 H   0  0  0  0  0  0  0  0  0  0  0  0
  1  4  1  0
  1  6  1  0
  1  8  1  0
  1  9  1  0
  2  3  1  0
  2  7  1  0
  2 11  1  0
  2 12  1  0
  3  5  1  0
  3  6  1  0
  3 10  1  6
  4  5  1  0
M  END
