COC=C(O)O_3
     RDKit          3D

 12 11  0  0  0  0  0  0  0  0999 V2000
   -0.9767    0.6768    1.5487 C   0  0  0  0  0  0  0  0  0  0  0  0
    0.5041    0.3502   -0.2095 C   0  0  0  0  0  0  0  0  0  0  0  0
    1.7248   -0.1293    0.1239 C   0  0  0  0  0  0  0  0  0  0  0  0
   -0.1531    1.2976    0.5950 O   0  0  0  0  0  0  0  0  0  0  0  0
    2.3226    0.3602    1.2684 O   0  0  0  0  0  0  0  0  0  0  0  0
    2.3327   -1.0823   -0.6695 O   0  0  0  0  0  0  0  0  0  0  0  0
    1.7895    1.1173    1.6039 H   0  0  0  0  0  0  0  0  0  0  0  0
   -1.4141    1.4470    2.1875 H   0  0  0  0  0  0  0  0  0  0  0  0
   -0.3834   -0.0114    2.1554 H   0  0  0  0  0  0  0  0  0  0  0  0
   -1.7726    0.1306    1.0378 H   0  0  0  0  0  0  0  0  0  0  0  0
    1.7916   -1.2828   -1.4648 H   0  0  0  0  0  0  0  0  0  0  0  0
    0.0062    0.0089   -1.1028 H   0  0  0  0  0  0  0  0  0  0  0  0
  1  4  1  0
  1  8  1  0
  1  9  1  0
  1 10  1  0
  2  3  2  0
  2  4  1  0
  2 12  1  0
  3  5  1  0
  3  6  1  0
  5  7  1  0
  6 11  1  0
M  END
