COC=C(O)O_1
     RDKit          3D

 12 11  0  0  0  0  0  0  0  0999 V2000
   -0.9606    0.9225    1.4918 C   0  0  0  0  0  0  0  0  0  0  0  0
    0.1755   -0.8344    0.4525 C   0  0  0  0  0  0  0  0  0  0  0  0
    1.3108   -0.1943    0.0890 C   0  0  0  0  0  0  0  0  0  0  0  0
   -0.6407   -0.4419    1.5247 O   0  0  0  0  0  0  0  0  0  0  0  0
    1.7091    0.9241    0.7898 O   0  0  0  0  0  0  0  0  0  0  0  0
    2.0313   -0.6839   -0.9812 O   0  0  0  0  0  0  0  0  0  0  0  0
    2.5887    1.2231    0.4756 H   0  0  0  0  0  0  0  0  0  0  0  0
   -1.7211    1.1226    2.2494 H   0  0  0  0  0  0  0  0  0  0  0  0
   -1.3435    1.1850    0.5031 H   0  0  0  0  0  0  0  0  0  0  0  0
   -0.0598    1.4998    1.7130 H   0  0  0  0  0  0  0  0  0  0  0  0
    2.8228   -0.1282   -1.1420 H   0  0  0  0  0  0  0  0  0  0  0  0
   -0.1411   -1.7116   -0.0917 H   0  0  0  0  0  0  0  0  0  0  0  0
  1  4  1  0
  1  8  1  0
  1  9  1  0
  1 10  1  0
  2  3  2  0
  2  4  1  0
  2 12  1  0
  3  5  1  0
  3  6  1  0
  5  7  1  0
  6 11  1  0
M  END
