COC=C(O)O_2
     RDKit          3D

 12 11  0  0  0  0  0  0  0  0999 V2000
   -0.9571    0.7258    1.5793 C   0  0  0  0  0  0  0  0  0  0  0  0
    0.2001    0.1407   -0.3667 C   0  0  0  0  0  0  0  0  0  0  0  0
    1.4470    0.0418    0.1455 C   0  0  0  0  0  0  0  0  0  0  0  0
   -0.8199    0.9217    0.1979 O   0  0  0  0  0  0  0  0  0  0  0  0
    1.7700    0.7203    1.2978 O   0  0  0  0  0  0  0  0  0  0  0  0
    2.3996   -0.7386   -0.4767 O   0  0  0  0  0  0  0  0  0  0  0  0
    2.7178    0.5548    1.4753 H   0  0  0  0  0  0  0  0  0  0  0  0
   -1.8690    1.2235    1.9156 H   0  0  0  0  0  0  0  0  0  0  0  0
   -0.0918    1.1634    2.0830 H   0  0  0  0  0  0  0  0  0  0  0  0
   -1.0168   -0.3435    1.7939 H   0  0  0  0  0  0  0  0  0  0  0  0
    2.0443   -1.1343   -1.3019 H   0  0  0  0  0  0  0  0  0  0  0  0
   -0.0527   -0.3928   -1.2690 H   0  0  0  0  0  0  0  0  0  0  0  0
  1  4  1  0
  1  8  1  0
  1  9  1  0
  1 10  1  0
  2  3  2  0
  2  4  1  0
  2 12  1  0
  3  5  1  0
  3  6  1  0
  5  7  1  0
  6 11  1  0
M  END
