O=CC(=O)O.C_4
     RDKit          3D

 12 10  0  0  0  0  0  0  0  0999 V2000
    0.8263    0.5332    2.6382 C   0  0  0  0  0  0  0  0  0  0  0  0
   -2.3619   -0.1446    1.1104 C   0  0  0  0  0  0  0  0  0  0  0  0
    0.9832    1.0345    1.2590 C   0  0  0  0  0  0  0  0  0  0  0  0
    0.6935   -0.6249    2.9059 O   0  0  0  0  0  0  0  0  0  0  0  0
    0.9854    0.1483    0.2478 O   0  0  0  0  0  0  0  0  0  0  0  0
    1.1042    2.2235    1.0750 O   0  0  0  0  0  0  0  0  0  0  0  0
    1.0937    0.6299   -0.5930 H   0  0  0  0  0  0  0  0  0  0  0  0
   -3.1282   -0.2698    1.8731 H   0  0  0  0  0  0  0  0  0  0  0  0
    0.8247    1.2359    3.4642 H   0  0  0  0  0  0  0  0  0  0  0  0
   -1.5326   -0.8187    1.3163 H   0  0  0  0  0  0  0  0  0  0  0  0
   -2.0051    0.8839    1.1199 H   0  0  0  0  0  0  0  0  0  0  0  0
   -2.7813   -0.3742    0.1327 H   0  0  0  0  0  0  0  0  0  0  0  0
  1  3  1  0
  1  4  2  0
  1  9  1  0
  2  8  1  0
  2 10  1  0
  2 11  1  0
  2 12  1  0
  3  5  1  0
  3  6  2  0
  5  7  1  0
M  END
