O=CC(=O)O.C_2
     RDKit          3D

 12 10  0  0  0  0  0  0  0  0999 V2000
    0.6256    0.6284    2.7493 C   0  0  0  0  0  0  0  0  0  0  0  0
   -2.2354   -0.3073    0.9255 C   0  0  0  0  0  0  0  0  0  0  0  0
    1.0494    0.7485    1.3408 C   0  0  0  0  0  0  0  0  0  0  0  0
   -0.1255    1.3945    3.2780 O   0  0  0  0  0  0  0  0  0  0  0  0
    0.5786    1.7752    0.6114 O   0  0  0  0  0  0  0  0  0  0  0  0
    1.8054   -0.0759    0.8813 O   0  0  0  0  0  0  0  0  0  0  0  0
    0.9448    1.7152   -0.2901 H   0  0  0  0  0  0  0  0  0  0  0  0
   -1.7880   -0.0270   -0.0261 H   0  0  0  0  0  0  0  0  0  0  0  0
    0.9997   -0.1929    3.3506 H   0  0  0  0  0  0  0  0  0  0  0  0
   -1.6656   -1.1225    1.3683 H   0  0  0  0  0  0  0  0  0  0  0  0
   -3.2624   -0.6286    0.7635 H   0  0  0  0  0  0  0  0  0  0  0  0
   -2.2248    0.5492    1.5968 H   0  0  0  0  0  0  0  0  0  0  0  0
  1  3  1  0
  1  4  2  0
  1  9  1  0
  2  8  1  0
  2 10  1  0
  2 11  1  0
  2 12  1  0
  3  5  1  0
  3  6  2  0
  5  7  1  0
M  END
