O=CC(=O)O.C_6
     RDKit          3D

 12 10  0  0  0  0  0  0  0  0999 V2000
    0.9084    0.1061    2.3317 C   0  0  0  0  0  0  0  0  0  0  0  0
   -2.8041   -0.0614    1.2568 C   0  0  0  0  0  0  0  0  0  0  0  0
    1.1428    0.8809    1.0976 C   0  0  0  0  0  0  0  0  0  0  0  0
    1.7784   -0.1924    3.0962 O   0  0  0  0  0  0  0  0  0  0  0  0
    2.3964    1.2753    0.8132 O   0  0  0  0  0  0  0  0  0  0  0  0
    0.2069    1.1404    0.3774 O   0  0  0  0  0  0  0  0  0  0  0  0
    2.3878    1.7719   -0.0258 H   0  0  0  0  0  0  0  0  0  0  0  0
   -2.2167    0.5358    0.5620 H   0  0  0  0  0  0  0  0  0  0  0  0
   -0.0969   -0.2188    2.5763 H   0  0  0  0  0  0  0  0  0  0  0  0
   -2.7623    0.3882    2.2474 H   0  0  0  0  0  0  0  0  0  0  0  0
   -2.4009   -1.0717    1.2979 H   0  0  0  0  0  0  0  0  0  0  0  0
   -3.8379   -0.0974    0.9186 H   0  0  0  0  0  0  0  0  0  0  0  0
  1  3  1  0
  1  4  2  0
  1  9  1  0
  2  8  1  0
  2 10  1  0
  2 11  1  0
  2 12  1  0
  3  5  1  0
  3  6  2  0
  5  7  1  0
M  END
