O=CC(=O)O.C_9
     RDKit          3D

 12 10  0  0  0  0  0  0  0  0999 V2000
    1.8582    0.5817    2.8431 C   0  0  0  0  0  0  0  0  0  0  0  0
   -3.2859   -0.0919    0.8020 C   0  0  0  0  0  0  0  0  0  0  0  0
    1.2860    0.6734    1.4858 C   0  0  0  0  0  0  0  0  0  0  0  0
    2.9948    0.8530    3.0979 O   0  0  0  0  0  0  0  0  0  0  0  0
    2.0767    1.0845    0.4790 O   0  0  0  0  0  0  0  0  0  0  0  0
    0.1260    0.3783    1.3153 O   0  0  0  0  0  0  0  0  0  0  0  0
    1.5580    1.0922   -0.3466 H   0  0  0  0  0  0  0  0  0  0  0  0
   -3.6768    0.8141    0.3423 H   0  0  0  0  0  0  0  0  0  0  0  0
    1.2314    0.2532    3.6649 H   0  0  0  0  0  0  0  0  0  0  0  0
   -3.8018   -0.2731    1.7432 H   0  0  0  0  0  0  0  0  0  0  0  0
   -2.2208    0.0274    0.9896 H   0  0  0  0  0  0  0  0  0  0  0  0
   -3.4439   -0.9359    0.1330 H   0  0  0  0  0  0  0  0  0  0  0  0
  1  3  1  0
  1  4  2  0
  1  9  1  0
  2  8  1  0
  2 10  1  0
  2 11  1  0
  2 12  1  0
  3  5  1  0
  3  6  2  0
  5  7  1  0
M  END
