O=CC(=O)O.C_0
     RDKit          3D

 12 10  0  0  0  0  0  0  0  0999 V2000
    0.7250    0.5426    2.6848 C   0  0  0  0  0  0  0  0  0  0  0  0
   -2.2544   -0.3046    1.0052 C   0  0  0  0  0  0  0  0  0  0  0  0
    1.0321    0.7764    1.2603 C   0  0  0  0  0  0  0  0  0  0  0  0
    0.0233    1.2622    3.3331 O   0  0  0  0  0  0  0  0  0  0  0  0
    0.5079    1.8579    0.6573 O   0  0  0  0  0  0  0  0  0  0  0  0
    1.7429   -0.0075    0.6751 O   0  0  0  0  0  0  0  0  0  0  0  0
    0.7983    1.8715   -0.2734 H   0  0  0  0  0  0  0  0  0  0  0  0
   -2.1559    0.6447    1.5285 H   0  0  0  0  0  0  0  0  0  0  0  0
    1.1437   -0.3234    3.1855 H   0  0  0  0  0  0  0  0  0  0  0  0
   -1.8875   -1.1085    1.6408 H   0  0  0  0  0  0  0  0  0  0  0  0
   -1.6720   -0.2743    0.0861 H   0  0  0  0  0  0  0  0  0  0  0  0
   -3.3015   -0.4801    0.7661 H   0  0  0  0  0  0  0  0  0  0  0  0
  1  3  1  0
  1  4  2  0
  1  9  1  0
  2  8  1  0
  2 10  1  0
  2 11  1  0
  2 12  1  0
  3  5  1  0
  3  6  2  0
  5  7  1  0
M  END
