O=CC(=O)O.C_5
     RDKit          3D

 12 10  0  0  0  0  0  0  0  0999 V2000
    0.8821    0.2630    2.3933 C   0  0  0  0  0  0  0  0  0  0  0  0
   -2.8007   -0.0745    1.2723 C   0  0  0  0  0  0  0  0  0  0  0  0
    1.1498    0.8321    1.0581 C   0  0  0  0  0  0  0  0  0  0  0  0
    1.7348    0.0728    3.2102 O   0  0  0  0  0  0  0  0  0  0  0  0
    2.4149    1.1558    0.7379 O   0  0  0  0  0  0  0  0  0  0  0  0
    0.2297    0.9922    0.2900 O   0  0  0  0  0  0  0  0  0  0  0  0
    2.4284    1.5159   -0.1681 H   0  0  0  0  0  0  0  0  0  0  0  0
   -2.7766    0.5638    2.1539 H   0  0  0  0  0  0  0  0  0  0  0  0
   -0.1327   -0.0028    2.6677 H   0  0  0  0  0  0  0  0  0  0  0  0
   -2.4209   -1.0623    1.5272 H   0  0  0  0  0  0  0  0  0  0  0  0
   -2.1816    0.3622    0.4910 H   0  0  0  0  0  0  0  0  0  0  0  0
   -3.8253   -0.1612    0.9159 H   0  0  0  0  0  0  0  0  0  0  0  0
  1  3  1  0
  1  4  2  0
  1  9  1  0
  2  8  1  0
  2 10  1  0
  2 11  1  0
  2 12  1  0
  3  5  1  0
  3  6  2  0
  5  7  1  0
M  END
