O=CC(=O)O.C_3
     RDKit          3D

 12 10  0  0  0  0  0  0  0  0999 V2000
    0.7224    0.8940    2.6369 C   0  0  0  0  0  0  0  0  0  0  0  0
   -2.3222   -0.2649    1.1232 C   0  0  0  0  0  0  0  0  0  0  0  0
    1.0976    0.6199    1.2361 C   0  0  0  0  0  0  0  0  0  0  0  0
   -0.0016    1.7897    2.9607 O   0  0  0  0  0  0  0  0  0  0  0  0
    0.6122    1.4201    0.2706 O   0  0  0  0  0  0  0  0  0  0  0  0
    1.8281   -0.3128    0.9941 O   0  0  0  0  0  0  0  0  0  0  0  0
    0.9451    1.1107   -0.5920 H   0  0  0  0  0  0  0  0  0  0  0  0
   -3.1729   -0.6277    1.6970 H   0  0  0  0  0  0  0  0  0  0  0  0
    1.1089    0.2593    3.4269 H   0  0  0  0  0  0  0  0  0  0  0  0
   -1.4753   -0.9334    1.2680 H   0  0  0  0  0  0  0  0  0  0  0  0
   -2.0574    0.7353    1.4609 H   0  0  0  0  0  0  0  0  0  0  0  0
   -2.5830   -0.2334    0.0669 H   0  0  0  0  0  0  0  0  0  0  0  0
  1  3  1  0
  1  4  2  0
  1  9  1  0
  2  8  1  0
  2 10  1  0
  2 11  1  0
  2 12  1  0
  3  5  1  0
  3  6  2  0
  5  7  1  0
M  END
