O=CC(=O)O.C
     RDKit          3D

 12 10  0  0  0  0  0  0  0  0999 V2000
    0.8274    0.4977    2.7416 C   0  0  0  0  0  0  0  0  0  0  0  0
   -2.3659   -0.1500    0.9965 C   0  0  0  0  0  0  0  0  0  0  0  0
    0.9434    1.0810    1.4047 C   0  0  0  0  0  0  0  0  0  0  0  0
    0.8760   -0.7504    2.8975 O   0  0  0  0  0  0  0  0  0  0  0  0
    1.1106    0.2580    0.2952 O   0  0  0  0  0  0  0  0  0  0  0  0
    0.8878    2.3308    1.2596 O   0  0  0  0  0  0  0  0  0  0  0  0
    1.1866    0.6502   -0.6358 H   0  0  0  0  0  0  0  0  0  0  0  0
   -2.3196    0.3835    1.9681 H   0  0  0  0  0  0  0  0  0  0  0  0
    0.6970    1.1388    3.6037 H   0  0  0  0  0  0  0  0  0  0  0  0
   -1.6944   -1.0326    1.0278 H   0  0  0  0  0  0  0  0  0  0  0  0
   -2.0403    0.5327    0.1849 H   0  0  0  0  0  0  0  0  0  0  0  0
   -3.4067   -0.4828    0.8056 H   0  0  0  0  0  0  0  0  0  0  0  0
  1  3  1  0
  1  4  2  0
  1  9  1  0
  2  8  1  0
  2 10  1  0
  2 11  1  0
  2 12  1  0
  3  5  1  0
  3  6  2  0
  5  7  1  0
M  END
