C=C=C.N_0
     RDKit          3D

 11  9  0  0  0  0  0  0  0  0999 V2000
   -0.6494    0.4295    0.1252 C   0  0  0  0  0  0  0  0  0  0  0  0
    0.2237   -0.5962    3.5630 N   0  0  0  0  0  0  0  0  0  0  0  0
   -1.6733    0.4657    0.9380 C   0  0  0  0  0  0  0  0  0  0  0  0
   -2.6940    0.5002    1.7546 C   0  0  0  0  0  0  0  0  0  0  0  0
    0.5249   -1.5307    3.3424 H   0  0  0  0  0  0  0  0  0  0  0  0
    1.0392   -0.0070    3.5785 H   0  0  0  0  0  0  0  0  0  0  0  0
   -0.3979   -0.4627   -0.4142 H   0  0  0  0  0  0  0  0  0  0  0  0
   -0.0494    1.3003   -0.0533 H   0  0  0  0  0  0  0  0  0  0  0  0
   -0.3652   -0.2804    2.8099 H   0  0  0  0  0  0  0  0  0  0  0  0
   -2.9154    1.3761    2.3327 H   0  0  0  0  0  0  0  0  0  0  0  0
   -3.3581   -0.3364    1.8518 H   0  0  0  0  0  0  0  0  0  0  0  0
  1  3  2  0
  1  7  1  0
  1  8  1  0
  2  5  1  0
  2  6  1  0
  2  9  1  0
  3  4  2  0
  4 10  1  0
  4 11  1  0
M  END
