O=C1OCCO1.[H][H]_2
     RDKit          3D

 12 11  0  0  0  0  0  0  0  0999 V2000
   -0.0784   -0.7300    1.2905 C   0  0  0  0  0  0  0  0  0  0  0  0
    0.9091    0.3484    0.8517 C   0  0  0  0  0  0  0  0  0  0  0  0
   -0.9034    1.3010    1.7697 C   0  0  0  0  0  0  0  0  0  0  0  0
   -1.1693   -0.0370    1.8462 O   0  0  0  0  0  0  0  0  0  0  0  0
    0.3056    1.5720    1.1939 O   0  0  0  0  0  0  0  0  0  0  0  0
   -1.6607    2.1588    2.1706 O   0  0  0  0  0  0  0  0  0  0  0  0
   -0.1118    4.1073    1.1598 H   0  0  0  0  0  0  0  0  0  0  0  0
   -0.4595   -1.3359    0.4561 H   0  0  0  0  0  0  0  0  0  0  0  0
    0.3228   -1.3962    2.0677 H   0  0  0  0  0  0  0  0  0  0  0  0
    0.4580    4.3871    0.7122 H   0  0  0  0  0  0  0  0  0  0  0  0
    1.0883    0.3583   -0.2330 H   0  0  0  0  0  0  0  0  0  0  0  0
    1.8734    0.2948    1.3772 H   0  0  0  0  0  0  0  0  0  0  0  0
  1  2  1  0
  1  4  1  0
  1  8  1  0
  1  9  1  0
  2  5  1  0
  2 11  1  0
  2 12  1  0
  3  4  1  0
  3  5  1  0
  3  6  2  0
  7 10  1  0
M  END
