O=C1OCCO1.[H][H]_5
     RDKit          3D

 12 11  0  0  0  0  0  0  0  0999 V2000
   -0.6075    0.5822    1.0171 C   0  0  0  0  0  0  0  0  0  0  0  0
    0.7166    1.1829    1.4826 C   0  0  0  0  0  0  0  0  0  0  0  0
   -0.4657    0.4762    3.2541 C   0  0  0  0  0  0  0  0  0  0  0  0
   -1.2675    0.1731    2.1901 O   0  0  0  0  0  0  0  0  0  0  0  0
    0.7082    1.0699    2.8847 O   0  0  0  0  0  0  0  0  0  0  0  0
   -0.7646    0.2428    4.4057 O   0  0  0  0  0  0  0  0  0  0  0  0
    0.7678    1.5069   -1.5687 H   0  0  0  0  0  0  0  0  0  0  0  0
   -1.2574    1.3065    0.5055 H   0  0  0  0  0  0  0  0  0  0  0  0
   -0.4822   -0.3047    0.3796 H   0  0  0  0  0  0  0  0  0  0  0  0
    0.8098    1.9055   -2.2342 H   0  0  0  0  0  0  0  0  0  0  0  0
    0.8207    2.2492    1.2357 H   0  0  0  0  0  0  0  0  0  0  0  0
    1.5958    0.6379    1.1103 H   0  0  0  0  0  0  0  0  0  0  0  0
  1  2  1  0
  1  4  1  0
  1  8  1  0
  1  9  1  0
  2  5  1  0
  2 11  1  0
  2 12  1  0
  3  4  1  0
  3  5  1  0
  3  6  2  0
  7 10  1  0
M  END
