O=C1OCCO1.[H][H]
     RDKit          3D

 12 11  0  0  0  0  0  0  0  0999 V2000
   -0.2209   -0.1565    0.8547 C   0  0  0  0  0  0  0  0  0  0  0  0
    1.1190    0.4634    1.3168 C   0  0  0  0  0  0  0  0  0  0  0  0
   -0.5956    1.3399    2.5231 C   0  0  0  0  0  0  0  0  0  0  0  0
   -1.2112    0.4579    1.6679 O   0  0  0  0  0  0  0  0  0  0  0  0
    0.7672    1.3733    2.3501 O   0  0  0  0  0  0  0  0  0  0  0  0
   -1.2108    2.0396    3.3684 O   0  0  0  0  0  0  0  0  0  0  0  0
   -0.7274    2.8585   -0.3178 H   0  0  0  0  0  0  0  0  0  0  0  0
   -0.4165    0.0720   -0.2147 H   0  0  0  0  0  0  0  0  0  0  0  0
   -0.2276   -1.2553    1.0183 H   0  0  0  0  0  0  0  0  0  0  0  0
   -0.1141    3.1421   -0.1064 H   0  0  0  0  0  0  0  0  0  0  0  0
    1.6115    1.0104    0.4846 H   0  0  0  0  0  0  0  0  0  0  0  0
    1.8004   -0.3169    1.7177 H   0  0  0  0  0  0  0  0  0  0  0  0
  1  2  1  0
  1  4  1  0
  1  8  1  0
  1  9  1  0
  2  5  1  0
  2 11  1  0
  2 12  1  0
  3  4  1  0
  3  5  1  0
  3  6  2  0
  7 10  1  0
M  END
