O=C1OCCO1.[H][H]_1
     RDKit          3D

 12 11  0  0  0  0  0  0  0  0999 V2000
    0.1966    0.0389    0.6142 C   0  0  0  0  0  0  0  0  0  0  0  0
    1.2230   -0.1103    1.7344 C   0  0  0  0  0  0  0  0  0  0  0  0
   -0.0873    1.6674    2.1318 C   0  0  0  0  0  0  0  0  0  0  0  0
   -0.5696    1.1682    0.9550 O   0  0  0  0  0  0  0  0  0  0  0  0
    0.9653    0.9486    2.6239 O   0  0  0  0  0  0  0  0  0  0  0  0
   -0.5450    2.6469    2.6805 O   0  0  0  0  0  0  0  0  0  0  0  0
   -2.0069    3.1957    0.4158 H   0  0  0  0  0  0  0  0  0  0  0  0
    0.6507    0.2302   -0.3687 H   0  0  0  0  0  0  0  0  0  0  0  0
   -0.4891   -0.8169    0.5355 H   0  0  0  0  0  0  0  0  0  0  0  0
   -2.1444    3.1179   -0.3448 H   0  0  0  0  0  0  0  0  0  0  0  0
    2.2618   -0.0089    1.3885 H   0  0  0  0  0  0  0  0  0  0  0  0
    1.1190   -1.0493    2.2967 H   0  0  0  0  0  0  0  0  0  0  0  0
  1  2  1  0
  1  4  1  0
  1  8  1  0
  1  9  1  0
  2  5  1  0
  2 11  1  0
  2 12  1  0
  3  4  1  0
  3  5  1  0
  3  6  2  0
  7 10  1  0
M  END
