O=C1OCCO1.[H][H]_3
     RDKit          3D

 12 11  0  0  0  0  0  0  0  0999 V2000
   -0.1375   -0.6395    1.2414 C   0  0  0  0  0  0  0  0  0  0  0  0
    0.6536    0.5950    0.8162 C   0  0  0  0  0  0  0  0  0  0  0  0
   -0.9117    1.1711    2.3175 C   0  0  0  0  0  0  0  0  0  0  0  0
   -1.0848   -0.1764    2.1727 O   0  0  0  0  0  0  0  0  0  0  0  0
    0.0985    1.6649    1.5415 O   0  0  0  0  0  0  0  0  0  0  0  0
   -1.5834    1.8573    3.0577 O   0  0  0  0  0  0  0  0  0  0  0  0
    0.9475    3.7817   -0.0510 H   0  0  0  0  0  0  0  0  0  0  0  0
   -0.6871   -1.1100    0.4136 H   0  0  0  0  0  0  0  0  0  0  0  0
    0.4790   -1.3985    1.7440 H   0  0  0  0  0  0  0  0  0  0  0  0
    0.5280    3.9156    0.5891 H   0  0  0  0  0  0  0  0  0  0  0  0
    0.5510    0.8297   -0.2530 H   0  0  0  0  0  0  0  0  0  0  0  0
    1.7211    0.5375    1.0730 H   0  0  0  0  0  0  0  0  0  0  0  0
  1  2  1  0
  1  4  1  0
  1  8  1  0
  1  9  1  0
  2  5  1  0
  2 11  1  0
  2 12  1  0
  3  4  1  0
  3  5  1  0
  3  6  2  0
  7 10  1  0
M  END
