O=C1OCCO1.[H][H]_4
     RDKit          3D

 12 11  0  0  0  0  0  0  0  0999 V2000
   -0.0946   -0.6295    1.2845 C   0  0  0  0  0  0  0  0  0  0  0  0
    0.4827    0.6660    0.7196 C   0  0  0  0  0  0  0  0  0  0  0  0
   -0.9594    1.1309    2.3749 C   0  0  0  0  0  0  0  0  0  0  0  0
   -0.9777   -0.2335    2.3055 O   0  0  0  0  0  0  0  0  0  0  0  0
   -0.1162    1.6995    1.4626 O   0  0  0  0  0  0  0  0  0  0  0  0
   -1.6219    1.7705    3.1635 O   0  0  0  0  0  0  0  0  0  0  0  0
    1.2788    3.6693   -0.0075 H   0  0  0  0  0  0  0  0  0  0  0  0
   -0.6740   -1.2045    0.5480 H   0  0  0  0  0  0  0  0  0  0  0  0
    0.6651   -1.2829    1.7368 H   0  0  0  0  0  0  0  0  0  0  0  0
    0.7884    3.8638    0.5627 H   0  0  0  0  0  0  0  0  0  0  0  0
    0.2317    0.8285   -0.3384 H   0  0  0  0  0  0  0  0  0  0  0  0
    1.5711    0.7501    0.8503 H   0  0  0  0  0  0  0  0  0  0  0  0
  1  2  1  0
  1  4  1  0
  1  8  1  0
  1  9  1  0
  2  5  1  0
  2 11  1  0
  2 12  1  0
  3  4  1  0
  3  5  1  0
  3  6  2  0
  7 10  1  0
M  END
