COC(=O)OC
     RDKit          3D

 12 11  0  0  0  0  0  0  0  0999 V2000
    0.2595   -1.1558    2.0016 C   0  0  0  0  0  0  0  0  0  0  0  0
    1.5884    1.9902   -0.5789 C   0  0  0  0  0  0  0  0  0  0  0  0
    0.0380    0.1335   -0.0997 C   0  0  0  0  0  0  0  0  0  0  0  0
    0.6748   -0.1192    1.1205 O   0  0  0  0  0  0  0  0  0  0  0  0
    0.4857    1.1636   -0.9275 O   0  0  0  0  0  0  0  0  0  0  0  0
   -0.9455   -0.5647   -0.4651 O   0  0  0  0  0  0  0  0  0  0  0  0
    0.9147   -1.1577    2.8967 H   0  0  0  0  0  0  0  0  0  0  0  0
    0.3400   -2.1407    1.4946 H   0  0  0  0  0  0  0  0  0  0  0  0
   -0.7894   -0.9837    2.3236 H   0  0  0  0  0  0  0  0  0  0  0  0
    2.5041    1.3728   -0.4608 H   0  0  0  0  0  0  0  0  0  0  0  0
    1.7570    2.7328   -1.3856 H   0  0  0  0  0  0  0  0  0  0  0  0
    1.3749    2.5297    0.3682 H   0  0  0  0  0  0  0  0  0  0  0  0
  1  4  1  0
  1  7  1  0
  1  8  1  0
  1  9  1  0
  2  5  1  0
  2 10  1  0
  2 11  1  0
  2 12  1  0
  3  4  1  0
  3  5  1  0
  3  6  2  0
M  END
