COC(=O)OC_1
     RDKit          3D

 12 11  0  0  0  0  0  0  0  0999 V2000
    0.3254   -1.1395    1.8663 C   0  0  0  0  0  0  0  0  0  0  0  0
    1.5675    1.6606   -0.5339 C   0  0  0  0  0  0  0  0  0  0  0  0
   -0.1214    0.3611    0.2164 C   0  0  0  0  0  0  0  0  0  0  0  0
   -0.6471   -0.6105    1.0182 O   0  0  0  0  0  0  0  0  0  0  0  0
    1.2020    0.6522    0.3573 O   0  0  0  0  0  0  0  0  0  0  0  0
   -0.8038    0.9529   -0.5996 O   0  0  0  0  0  0  0  0  0  0  0  0
    0.7231   -0.3390    2.4962 H   0  0  0  0  0  0  0  0  0  0  0  0
    1.1271   -1.5740    1.2625 H   0  0  0  0  0  0  0  0  0  0  0  0
   -0.1378   -1.9109    2.4869 H   0  0  0  0  0  0  0  0  0  0  0  0
    0.9670    2.5507   -0.3232 H   0  0  0  0  0  0  0  0  0  0  0  0
    2.6306    1.8800   -0.4058 H   0  0  0  0  0  0  0  0  0  0  0  0
    1.3697    1.3172   -1.5538 H   0  0  0  0  0  0  0  0  0  0  0  0
  1  4  1  0
  1  7  1  0
  1  8  1  0
  1  9  1  0
  2  5  1  0
  2 10  1  0
  2 11  1  0
  2 12  1  0
  3  4  1  0
  3  5  1  0
  3  6  2  0
M  END
