COC(=O)OC_0
     RDKit          3D

 12 11  0  0  0  0  0  0  0  0999 V2000
    0.1116   -1.2965    1.9936 C   0  0  0  0  0  0  0  0  0  0  0  0
    1.3133    1.9511   -0.8977 C   0  0  0  0  0  0  0  0  0  0  0  0
    0.8385    0.3736    0.6521 C   0  0  0  0  0  0  0  0  0  0  0  0
    1.0474   -0.2771    1.8322 O   0  0  0  0  0  0  0  0  0  0  0  0
    1.6704    1.4058    0.3335 O   0  0  0  0  0  0  0  0  0  0  0  0
   -0.0632    0.0430   -0.0940 O   0  0  0  0  0  0  0  0  0  0  0  0
    0.2995   -1.7994    2.9457 H   0  0  0  0  0  0  0  0  0  0  0  0
    0.2129   -2.0024    1.1640 H   0  0  0  0  0  0  0  0  0  0  0  0
   -0.8911   -0.8589    1.9859 H   0  0  0  0  0  0  0  0  0  0  0  0
    0.2840    2.3164   -0.8361 H   0  0  0  0  0  0  0  0  0  0  0  0
    1.9952    2.7734   -1.1296 H   0  0  0  0  0  0  0  0  0  0  0  0
    1.3836    1.1717   -1.6621 H   0  0  0  0  0  0  0  0  0  0  0  0
  1  4  1  0
  1  7  1  0
  1  8  1  0
  1  9  1  0
  2  5  1  0
  2 10  1  0
  2 11  1  0
  2 12  1  0
  3  4  1  0
  3  5  1  0
  3  6  2  0
M  END
