O=CC(O)(O)C_7
     RDKit          3D

 12 11  0  0  0  0  0  0  0  0999 V2000
   -0.0184   -1.3130    1.0270 C   0  0  0  0  0  0  0  0  0  0  0  0
    1.1639    0.8356    0.6207 C   0  0  0  0  0  0  0  0  0  0  0  0
   -0.1777    0.1039    0.5184 C   0  0  0  0  0  0  0  0  0  0  0  0
    0.8435   -2.0104    0.5870 O   0  0  0  0  0  0  0  0  0  0  0  0
   -1.1582    0.7990    1.2982 O   0  0  0  0  0  0  0  0  0  0  0  0
   -0.5464    0.0152   -0.8615 O   0  0  0  0  0  0  0  0  0  0  0  0
   -0.8951    0.8269    2.2429 H   0  0  0  0  0  0  0  0  0  0  0  0
   -0.0002   -0.6702   -1.2983 H   0  0  0  0  0  0  0  0  0  0  0  0
   -0.7436   -1.7418    1.7046 H   0  0  0  0  0  0  0  0  0  0  0  0
    1.4904    0.9062    1.6575 H   0  0  0  0  0  0  0  0  0  0  0  0
    1.9268    0.3012    0.0549 H   0  0  0  0  0  0  0  0  0  0  0  0
    1.0636    1.8408    0.2134 H   0  0  0  0  0  0  0  0  0  0  0  0
  1  3  1  0
  1  4  2  0
  1  9  1  0
  2  3  1  0
  2 10  1  0
  2 11  1  0
  2 12  1  0
  3  5  1  0
  3  6  1  0
  5  7  1  0
  6  8  1  0
M  END
