O=CC(O)(O)C_6
     RDKit          3D

 12 11  0  0  0  0  0  0  0  0999 V2000
    0.2560   -1.5508    1.0000 C   0  0  0  0  0  0  0  0  0  0  0  0
    1.2316    0.6770    0.5424 C   0  0  0  0  0  0  0  0  0  0  0  0
   -0.0756   -0.1149    0.6353 C   0  0  0  0  0  0  0  0  0  0  0  0
    1.2151   -1.8422    1.6478 O   0  0  0  0  0  0  0  0  0  0  0  0
   -0.8943    0.4359    1.6685 O   0  0  0  0  0  0  0  0  0  0  0  0
   -0.7373   -0.1013   -0.6331 O   0  0  0  0  0  0  0  0  0  0  0  0
   -1.1986    1.3336    1.4224 H   0  0  0  0  0  0  0  0  0  0  0  0
   -1.0731    0.7963   -0.8308 H   0  0  0  0  0  0  0  0  0  0  0  0
   -0.4447   -2.3334    0.7422 H   0  0  0  0  0  0  0  0  0  0  0  0
    1.0405    1.7227    0.3065 H   0  0  0  0  0  0  0  0  0  0  0  0
    1.7588    0.6186    1.4949 H   0  0  0  0  0  0  0  0  0  0  0  0
    1.8703    0.2518   -0.2311 H   0  0  0  0  0  0  0  0  0  0  0  0
  1  3  1  0
  1  4  2  0
  1  9  1  0
  2  3  1  0
  2 10  1  0
  2 11  1  0
  2 12  1  0
  3  5  1  0
  3  6  1  0
  5  7  1  0
  6  8  1  0
M  END
