O=CC(O)(O)C
     RDKit          3D

 12 11  0  0  0  0  0  0  0  0999 V2000
    0.1646   -1.4175    1.0923 C   0  0  0  0  0  0  0  0  0  0  0  0
    1.3310    0.7125    0.5693 C   0  0  0  0  0  0  0  0  0  0  0  0
   -0.0261   -0.0000    0.6164 C   0  0  0  0  0  0  0  0  0  0  0  0
    0.8098   -2.2141    0.4284 O   0  0  0  0  0  0  0  0  0  0  0  0
   -0.8679    0.6877    1.5104 O   0  0  0  0  0  0  0  0  0  0  0  0
   -0.5971   -0.0229   -0.6698 O   0  0  0  0  0  0  0  0  0  0  0  0
   -1.7748    0.2908    1.4266 H   0  0  0  0  0  0  0  0  0  0  0  0
   -0.8257    0.9139   -0.9081 H   0  0  0  0  0  0  0  0  0  0  0  0
   -0.2786   -1.7441    2.0280 H   0  0  0  0  0  0  0  0  0  0  0  0
    1.1963    1.7705    0.2584 H   0  0  0  0  0  0  0  0  0  0  0  0
    1.8096    0.7006    1.5724 H   0  0  0  0  0  0  0  0  0  0  0  0
    2.0075    0.2159   -0.1593 H   0  0  0  0  0  0  0  0  0  0  0  0
  1  3  1  0
  1  4  2  0
  1  9  1  0
  2  3  1  0
  2 10  1  0
  2 11  1  0
  2 12  1  0
  3  5  1  0
  3  6  1  0
  5  7  1  0
  6  8  1  0
M  END
