O=CC(O)(O)C_2
     RDKit          3D

 12 11  0  0  0  0  0  0  0  0999 V2000
    0.0684   -1.4126    0.9813 C   0  0  0  0  0  0  0  0  0  0  0  0
    1.2782    0.7128    0.5608 C   0  0  0  0  0  0  0  0  0  0  0  0
   -0.0727   -0.0002    0.4602 C   0  0  0  0  0  0  0  0  0  0  0  0
    0.2299   -1.5871    2.1495 O   0  0  0  0  0  0  0  0  0  0  0  0
   -1.0175    0.6593    1.3071 O   0  0  0  0  0  0  0  0  0  0  0  0
   -0.5109   -0.0179   -0.9030 O   0  0  0  0  0  0  0  0  0  0  0  0
   -0.8979    0.3190    2.2200 H   0  0  0  0  0  0  0  0  0  0  0  0
   -0.9925    0.8135   -1.0784 H   0  0  0  0  0  0  0  0  0  0  0  0
    0.0343   -2.2597    0.3106 H   0  0  0  0  0  0  0  0  0  0  0  0
    1.1770    1.7514    0.2498 H   0  0  0  0  0  0  0  0  0  0  0  0
    1.6410    0.6893    1.5881 H   0  0  0  0  0  0  0  0  0  0  0  0
    2.0113    0.2255   -0.0810 H   0  0  0  0  0  0  0  0  0  0  0  0
  1  3  1  0
  1  4  2  0
  1  9  1  0
  2  3  1  0
  2 10  1  0
  2 11  1  0
  2 12  1  0
  3  5  1  0
  3  6  1  0
  5  7  1  0
  6  8  1  0
M  END
