O=CC(O)(O)C_3
     RDKit          3D

 12 11  0  0  0  0  0  0  0  0999 V2000
    0.1559   -1.3985    1.0702 C   0  0  0  0  0  0  0  0  0  0  0  0
    1.3508    0.7670    0.6229 C   0  0  0  0  0  0  0  0  0  0  0  0
    0.0158    0.0212    0.5602 C   0  0  0  0  0  0  0  0  0  0  0  0
   -0.7646   -1.9374    1.6001 O   0  0  0  0  0  0  0  0  0  0  0  0
   -0.9305    0.6732    1.4035 O   0  0  0  0  0  0  0  0  0  0  0  0
   -0.4553   -0.0223   -0.7876 O   0  0  0  0  0  0  0  0  0  0  0  0
   -1.6706    0.0470    1.5428 H   0  0  0  0  0  0  0  0  0  0  0  0
   -0.8255    0.8524   -1.0186 H   0  0  0  0  0  0  0  0  0  0  0  0
    1.0420   -1.9778    0.8535 H   0  0  0  0  0  0  0  0  0  0  0  0
    1.2169    1.7951    0.2901 H   0  0  0  0  0  0  0  0  0  0  0  0
    1.7240    0.7858    1.6463 H   0  0  0  0  0  0  0  0  0  0  0  0
    2.0896    0.2876   -0.0183 H   0  0  0  0  0  0  0  0  0  0  0  0
  1  3  1  0
  1  4  2  0
  1  9  1  0
  2  3  1  0
  2 10  1  0
  2 11  1  0
  2 12  1  0
  3  5  1  0
  3  6  1  0
  5  7  1  0
  6  8  1  0
M  END
