OC(=C)C(O)O_3
     RDKit          3D

 12 11  0  0  0  0  0  0  0  0999 V2000
   -0.0310   -0.5690    1.0440 C   0  0  0  0  0  0  0  0  0  0  0  0
   -0.3563    1.0765   -0.7864 C   0  0  0  0  0  0  0  0  0  0  0  0
    0.3671    0.6441    0.2417 C   0  0  0  0  0  0  0  0  0  0  0  0
    0.6352   -1.7146    0.5570 O   0  0  0  0  0  0  0  0  0  0  0  0
    0.1940   -0.3060    2.4123 O   0  0  0  0  0  0  0  0  0  0  0  0
    1.5363    1.2263    0.6532 O   0  0  0  0  0  0  0  0  0  0  0  0
    1.0884    0.0910    2.4991 H   0  0  0  0  0  0  0  0  0  0  0  0
    1.5941   -1.6125    0.7223 H   0  0  0  0  0  0  0  0  0  0  0  0
   -1.1085   -0.7673    0.9371 H   0  0  0  0  0  0  0  0  0  0  0  0
    1.7400    2.0049    0.0905 H   0  0  0  0  0  0  0  0  0  0  0  0
   -0.0343    1.9342   -1.3384 H   0  0  0  0  0  0  0  0  0  0  0  0
   -1.2555    0.5780   -1.0835 H   0  0  0  0  0  0  0  0  0  0  0  0
  1  3  1  0
  1  4  1  0
  1  5  1  0
  1  9  1  0
  2  3  2  0
  2 11  1  0
  2 12  1  0
  3  6  1  0
  4  8  1  0
  5  7  1  0
  6 10  1  0
M  END
