OC(=C)C(O)O_8
     RDKit          3D

 12 11  0  0  0  0  0  0  0  0999 V2000
    0.2169   -0.4128    0.9348 C   0  0  0  0  0  0  0  0  0  0  0  0
   -0.1554    0.9028   -1.1340 C   0  0  0  0  0  0  0  0  0  0  0  0
    0.4514    0.7812    0.0433 C   0  0  0  0  0  0  0  0  0  0  0  0
    1.0582   -1.4890    0.5556 O   0  0  0  0  0  0  0  0  0  0  0  0
    0.3711   -0.0436    2.2937 O   0  0  0  0  0  0  0  0  0  0  0  0
    1.3390    1.7120    0.5111 O   0  0  0  0  0  0  0  0  0  0  0  0
   -0.2215    0.7081    2.5134 H   0  0  0  0  0  0  0  0  0  0  0  0
    1.1673   -2.0836    1.3256 H   0  0  0  0  0  0  0  0  0  0  0  0
   -0.8197   -0.7648    0.8077 H   0  0  0  0  0  0  0  0  0  0  0  0
    1.7405    1.3648    1.3405 H   0  0  0  0  0  0  0  0  0  0  0  0
    0.0503    1.7571   -1.7453 H   0  0  0  0  0  0  0  0  0  0  0  0
   -0.8285    0.1533   -1.4974 H   0  0  0  0  0  0  0  0  0  0  0  0
  1  3  1  0
  1  4  1  0
  1  5  1  0
  1  9  1  0
  2  3  2  0
  2 11  1  0
  2 12  1  0
  3  6  1  0
  4  8  1  0
  5  7  1  0
  6 10  1  0
M  END
