OC(=C)C(O)O_1
     RDKit          3D

 12 11  0  0  0  0  0  0  0  0999 V2000
    0.1637   -0.2352    1.1121 C   0  0  0  0  0  0  0  0  0  0  0  0
   -0.1859    0.8378   -1.0937 C   0  0  0  0  0  0  0  0  0  0  0  0
    0.3117    0.9100    0.1375 C   0  0  0  0  0  0  0  0  0  0  0  0
    0.0342   -1.4792    0.4447 O   0  0  0  0  0  0  0  0  0  0  0  0
    1.2165   -0.2166    2.0520 O   0  0  0  0  0  0  0  0  0  0  0  0
    0.9694    2.0251    0.5907 O   0  0  0  0  0  0  0  0  0  0  0  0
    2.0421   -0.4702    1.5907 H   0  0  0  0  0  0  0  0  0  0  0  0
    0.0853   -2.2014    1.1042 H   0  0  0  0  0  0  0  0  0  0  0  0
   -0.7620   -0.0765    1.6878 H   0  0  0  0  0  0  0  0  0  0  0  0
    1.2533    1.8679    1.5209 H   0  0  0  0  0  0  0  0  0  0  0  0
   -0.0686    1.6666   -1.7611 H   0  0  0  0  0  0  0  0  0  0  0  0
   -0.6900   -0.0431   -1.4369 H   0  0  0  0  0  0  0  0  0  0  0  0
  1  3  1  0
  1  4  1  0
  1  5  1  0
  1  9  1  0
  2  3  2  0
  2 11  1  0
  2 12  1  0
  3  6  1  0
  4  8  1  0
  5  7  1  0
  6 10  1  0
M  END
