OC(=C)C(O)O_14
     RDKit          3D

 12 11  0  0  0  0  0  0  0  0999 V2000
    0.2608   -0.2966    1.1205 C   0  0  0  0  0  0  0  0  0  0  0  0
    0.0047    0.7221   -1.1171 C   0  0  0  0  0  0  0  0  0  0  0  0
    0.2889    0.8821    0.1726 C   0  0  0  0  0  0  0  0  0  0  0  0
   -0.6220   -1.3113    0.6653 O   0  0  0  0  0  0  0  0  0  0  0  0
    1.5719   -0.7749    1.3718 O   0  0  0  0  0  0  0  0  0  0  0  0
    0.6476    2.1112    0.6783 O   0  0  0  0  0  0  0  0  0  0  0  0
    2.1947   -0.0272    1.5013 H   0  0  0  0  0  0  0  0  0  0  0  0
   -0.3780   -2.1508    1.1045 H   0  0  0  0  0  0  0  0  0  0  0  0
   -0.1439    0.0437    2.0876 H   0  0  0  0  0  0  0  0  0  0  0  0
    0.7728    2.0599    1.6519 H   0  0  0  0  0  0  0  0  0  0  0  0
    0.0414    1.5639   -1.7780 H   0  0  0  0  0  0  0  0  0  0  0  0
   -0.2692   -0.2368   -1.5098 H   0  0  0  0  0  0  0  0  0  0  0  0
  1  3  1  0
  1  4  1  0
  1  5  1  0
  1  9  1  0
  2  3  2  0
  2 11  1  0
  2 12  1  0
  3  6  1  0
  4  8  1  0
  5  7  1  0
  6 10  1  0
M  END
