OC(=C)C(O)O_7
     RDKit          3D

 12 11  0  0  0  0  0  0  0  0999 V2000
    0.0931   -0.4216    1.0110 C   0  0  0  0  0  0  0  0  0  0  0  0
   -0.2237    0.8686   -1.0787 C   0  0  0  0  0  0  0  0  0  0  0  0
    0.4314    0.7072    0.0679 C   0  0  0  0  0  0  0  0  0  0  0  0
    0.6805   -1.6308    0.5709 O   0  0  0  0  0  0  0  0  0  0  0  0
    0.4541   -0.0705    2.3354 O   0  0  0  0  0  0  0  0  0  0  0  0
    1.4597    1.5319    0.4408 O   0  0  0  0  0  0  0  0  0  0  0  0
   -0.0399    0.7268    2.6272 H   0  0  0  0  0  0  0  0  0  0  0  0
    1.6326   -1.6074    0.7927 H   0  0  0  0  0  0  0  0  0  0  0  0
   -0.9938   -0.6005    0.9974 H   0  0  0  0  0  0  0  0  0  0  0  0
    1.8339    1.2088    1.2933 H   0  0  0  0  0  0  0  0  0  0  0  0
    0.0511    1.6694   -1.7341 H   0  0  0  0  0  0  0  0  0  0  0  0
   -1.0093    0.2035   -1.3748 H   0  0  0  0  0  0  0  0  0  0  0  0
  1  3  1  0
  1  4  1  0
  1  5  1  0
  1  9  1  0
  2  3  2  0
  2 11  1  0
  2 12  1  0
  3  6  1  0
  4  8  1  0
  5  7  1  0
  6 10  1  0
M  END
