OC(=C)C(O)O
     RDKit          3D

 12 11  0  0  0  0  0  0  0  0999 V2000
    0.3641   -0.2249    1.2110 C   0  0  0  0  0  0  0  0  0  0  0  0
    0.2803    0.7601   -1.0608 C   0  0  0  0  0  0  0  0  0  0  0  0
    0.2502    0.9413    0.2596 C   0  0  0  0  0  0  0  0  0  0  0  0
   -0.5247   -1.2473    0.8382 O   0  0  0  0  0  0  0  0  0  0  0  0
    1.6852   -0.7028    1.2388 O   0  0  0  0  0  0  0  0  0  0  0  0
    0.1371    2.2385    0.7570 O   0  0  0  0  0  0  0  0  0  0  0  0
    1.8473   -1.1754    0.3807 H   0  0  0  0  0  0  0  0  0  0  0  0
   -0.4822   -1.9315    1.5562 H   0  0  0  0  0  0  0  0  0  0  0  0
    0.0996    0.1236    2.2341 H   0  0  0  0  0  0  0  0  0  0  0  0
    0.1266    2.4256    1.7524 H   0  0  0  0  0  0  0  0  0  0  0  0
    0.2072    1.6080   -1.7296 H   0  0  0  0  0  0  0  0  0  0  0  0
    0.3789   -0.2298   -1.4887 H   0  0  0  0  0  0  0  0  0  0  0  0
  1  3  1  0
  1  4  1  0
  1  5  1  0
  1  9  1  0
  2  3  2  0
  2 11  1  0
  2 12  1  0
  3  6  1  0
  4  8  1  0
  5  7  1  0
  6 10  1  0
M  END
