OC(=C)C(O)O_0
     RDKit          3D

 12 11  0  0  0  0  0  0  0  0999 V2000
    0.6761   -0.2429    1.0480 C   0  0  0  0  0  0  0  0  0  0  0  0
    0.9347    1.1704   -0.9647 C   0  0  0  0  0  0  0  0  0  0  0  0
    0.2513    0.8882    0.1411 C   0  0  0  0  0  0  0  0  0  0  0  0
   -0.1599   -0.3003    2.1880 O   0  0  0  0  0  0  0  0  0  0  0  0
    0.7381   -1.4682    0.3462 O   0  0  0  0  0  0  0  0  0  0  0  0
   -0.8655    1.5948    0.5035 O   0  0  0  0  0  0  0  0  0  0  0  0
   -0.1700   -1.7155    0.0768 H   0  0  0  0  0  0  0  0  0  0  0  0
    0.0517   -1.1104    2.6951 H   0  0  0  0  0  0  0  0  0  0  0  0
    1.6985   -0.0386    1.4031 H   0  0  0  0  0  0  0  0  0  0  0  0
   -1.1946    1.2305    1.3560 H   0  0  0  0  0  0  0  0  0  0  0  0
    0.6111    1.9735   -1.5947 H   0  0  0  0  0  0  0  0  0  0  0  0
    1.7981    0.6039   -1.2496 H   0  0  0  0  0  0  0  0  0  0  0  0
  1  3  1  0
  1  4  1  0
  1  5  1  0
  1  9  1  0
  2  3  2  0
  2 11  1  0
  2 12  1  0
  3  6  1  0
  4  8  1  0
  5  7  1  0
  6 10  1  0
M  END
