OC(=C)C(O)O_9
     RDKit          3D

 12 11  0  0  0  0  0  0  0  0999 V2000
    0.5653   -0.2965    1.0704 C   0  0  0  0  0  0  0  0  0  0  0  0
    0.9427    1.1144   -0.9320 C   0  0  0  0  0  0  0  0  0  0  0  0
    0.2314    0.8644    0.1641 C   0  0  0  0  0  0  0  0  0  0  0  0
    0.0637   -0.0522    2.3729 O   0  0  0  0  0  0  0  0  0  0  0  0
    0.1059   -1.5270    0.5339 O   0  0  0  0  0  0  0  0  0  0  0  0
   -0.8495    1.6258    0.5184 O   0  0  0  0  0  0  0  0  0  0  0  0
    0.3534   -1.6109   -0.4127 H   0  0  0  0  0  0  0  0  0  0  0  0
    0.0264   -0.9044    2.8518 H   0  0  0  0  0  0  0  0  0  0  0  0
    1.6607   -0.3711    1.1664 H   0  0  0  0  0  0  0  0  0  0  0  0
   -1.1881    1.2897    1.3786 H   0  0  0  0  0  0  0  0  0  0  0  0
    0.6728    1.9407   -1.5569 H   0  0  0  0  0  0  0  0  0  0  0  0
    1.7849    0.5125   -1.2062 H   0  0  0  0  0  0  0  0  0  0  0  0
  1  3  1  0
  1  4  1  0
  1  5  1  0
  1  9  1  0
  2  3  2  0
  2 11  1  0
  2 12  1  0
  3  6  1  0
  4  8  1  0
  5  7  1  0
  6 10  1  0
M  END
