OC(=C)C(O)O_16
     RDKit          3D

 12 11  0  0  0  0  0  0  0  0999 V2000
    0.1540   -0.5254    1.1751 C   0  0  0  0  0  0  0  0  0  0  0  0
   -0.4667    1.0353   -0.6507 C   0  0  0  0  0  0  0  0  0  0  0  0
    0.4167    0.6535    0.2682 C   0  0  0  0  0  0  0  0  0  0  0  0
    0.9700   -1.6272    0.8160 O   0  0  0  0  0  0  0  0  0  0  0  0
    0.3101   -0.1333    2.5200 O   0  0  0  0  0  0  0  0  0  0  0  0
    1.6192    1.2792    0.4610 O   0  0  0  0  0  0  0  0  0  0  0  0
    1.2526    0.0888    2.6468 H   0  0  0  0  0  0  0  0  0  0  0  0
    0.9496   -1.7751   -0.1546 H   0  0  0  0  0  0  0  0  0  0  0  0
   -0.8948   -0.8479    1.0795 H   0  0  0  0  0  0  0  0  0  0  0  0
    1.7108    2.0382   -0.1564 H   0  0  0  0  0  0  0  0  0  0  0  0
   -0.2525    1.8738   -1.2794 H   0  0  0  0  0  0  0  0  0  0  0  0
   -1.3995    0.5257   -0.7766 H   0  0  0  0  0  0  0  0  0  0  0  0
  1  3  1  0
  1  4  1  0
  1  5  1  0
  1  9  1  0
  2  3  2  0
  2 11  1  0
  2 12  1  0
  3  6  1  0
  4  8  1  0
  5  7  1  0
  6 10  1  0
M  END
