OC(=C)C(O)O_12
     RDKit          3D

 12 11  0  0  0  0  0  0  0  0999 V2000
    0.5615   -0.3991    0.9516 C   0  0  0  0  0  0  0  0  0  0  0  0
    0.8561    1.0214   -1.0657 C   0  0  0  0  0  0  0  0  0  0  0  0
    0.3163    0.8478    0.1378 C   0  0  0  0  0  0  0  0  0  0  0  0
    1.0791   -0.0515    2.2229 O   0  0  0  0  0  0  0  0  0  0  0  0
   -0.6190   -1.1784    1.0420 O   0  0  0  0  0  0  0  0  0  0  0  0
   -0.5048    1.7771    0.7135 O   0  0  0  0  0  0  0  0  0  0  0  0
   -1.0344   -1.2801    0.1584 H   0  0  0  0  0  0  0  0  0  0  0  0
    0.9609   -0.8140    2.8253 H   0  0  0  0  0  0  0  0  0  0  0  0
    1.3264   -1.0180    0.4557 H   0  0  0  0  0  0  0  0  0  0  0  0
   -0.7235    1.4732    1.6189 H   0  0  0  0  0  0  0  0  0  0  0  0
    0.6534    1.9222   -1.6068 H   0  0  0  0  0  0  0  0  0  0  0  0
    1.4974    0.2849   -1.5047 H   0  0  0  0  0  0  0  0  0  0  0  0
  1  3  1  0
  1  4  1  0
  1  5  1  0
  1  9  1  0
  2  3  2  0
  2 11  1  0
  2 12  1  0
  3  6  1  0
  4  8  1  0
  5  7  1  0
  6 10  1  0
M  END
