OC(=C)C(O)O_5
     RDKit          3D

 12 11  0  0  0  0  0  0  0  0999 V2000
    0.5996   -0.2291    0.9545 C   0  0  0  0  0  0  0  0  0  0  0  0
    0.7626    1.2040   -1.0555 C   0  0  0  0  0  0  0  0  0  0  0  0
    0.1910    0.9647    0.1214 C   0  0  0  0  0  0  0  0  0  0  0  0
   -0.2186   -0.3167    2.1078 O   0  0  0  0  0  0  0  0  0  0  0  0
    0.6286   -1.4073    0.1648 O   0  0  0  0  0  0  0  0  0  0  0  0
   -0.7841    1.7810    0.6319 O   0  0  0  0  0  0  0  0  0  0  0  0
    0.7317   -2.1994    0.7339 H   0  0  0  0  0  0  0  0  0  0  0  0
   -0.0360   -1.1486    2.5931 H   0  0  0  0  0  0  0  0  0  0  0  0
    1.6292   -0.0539    1.3067 H   0  0  0  0  0  0  0  0  0  0  0  0
   -1.0983    1.3879    1.4768 H   0  0  0  0  0  0  0  0  0  0  0  0
    0.4535    2.0530   -1.6300 H   0  0  0  0  0  0  0  0  0  0  0  0
    1.5104    0.5498   -1.4564 H   0  0  0  0  0  0  0  0  0  0  0  0
  1  3  1  0
  1  4  1  0
  1  5  1  0
  1  9  1  0
  2  3  2  0
  2 11  1  0
  2 12  1  0
  3  6  1  0
  4  8  1  0
  5  7  1  0
  6 10  1  0
M  END
