OC(=C)C(O)O_15
     RDKit          3D

 12 11  0  0  0  0  0  0  0  0999 V2000
    0.4032   -0.2616    1.1511 C   0  0  0  0  0  0  0  0  0  0  0  0
    0.4423    0.7883   -1.0892 C   0  0  0  0  0  0  0  0  0  0  0  0
    0.2615    0.9241    0.2217 C   0  0  0  0  0  0  0  0  0  0  0  0
   -0.8706   -0.8058    1.4498 O   0  0  0  0  0  0  0  0  0  0  0  0
    1.3242   -1.2245    0.6605 O   0  0  0  0  0  0  0  0  0  0  0  0
   -0.0873    2.1357    0.7745 O   0  0  0  0  0  0  0  0  0  0  0  0
    2.1997   -0.8116    0.4932 H   0  0  0  0  0  0  0  0  0  0  0  0
   -0.7521   -1.7380    1.7243 H   0  0  0  0  0  0  0  0  0  0  0  0
    0.8102    0.0961    2.1113 H   0  0  0  0  0  0  0  0  0  0  0  0
   -0.3652    2.0076    1.7072 H   0  0  0  0  0  0  0  0  0  0  0  0
    0.3196    1.6360   -1.7319 H   0  0  0  0  0  0  0  0  0  0  0  0
    0.6840   -0.1609   -1.5234 H   0  0  0  0  0  0  0  0  0  0  0  0
  1  3  1  0
  1  4  1  0
  1  5  1  0
  1  9  1  0
  2  3  2  0
  2 11  1  0
  2 12  1  0
  3  6  1  0
  4  8  1  0
  5  7  1  0
  6 10  1  0
M  END
