OC(=C)C(O)O_11
     RDKit          3D

 12 11  0  0  0  0  0  0  0  0999 V2000
    0.1683   -0.4810    1.2147 C   0  0  0  0  0  0  0  0  0  0  0  0
   -0.2990    0.8694   -0.8091 C   0  0  0  0  0  0  0  0  0  0  0  0
    0.3601    0.7356    0.3380 C   0  0  0  0  0  0  0  0  0  0  0  0
   -0.2347   -1.6187    0.4701 O   0  0  0  0  0  0  0  0  0  0  0  0
    1.3320   -0.7049    1.9900 O   0  0  0  0  0  0  0  0  0  0  0  0
    1.2343    1.6806    0.8165 O   0  0  0  0  0  0  0  0  0  0  0  0
    1.7189    0.1630    2.2461 H   0  0  0  0  0  0  0  0  0  0  0  0
    0.5720   -2.0636    0.1414 H   0  0  0  0  0  0  0  0  0  0  0  0
   -0.6548   -0.2768    1.9187 H   0  0  0  0  0  0  0  0  0  0  0  0
    1.3026    2.4274    0.1828 H   0  0  0  0  0  0  0  0  0  0  0  0
   -0.1539    1.7416   -1.4113 H   0  0  0  0  0  0  0  0  0  0  0  0
   -0.9764    0.1127   -1.1490 H   0  0  0  0  0  0  0  0  0  0  0  0
  1  3  1  0
  1  4  1  0
  1  5  1  0
  1  9  1  0
  2  3  2  0
  2 11  1  0
  2 12  1  0
  3  6  1  0
  4  8  1  0
  5  7  1  0
  6 10  1  0
M  END
