OC(=C)C(O)O_10
     RDKit          3D

 12 11  0  0  0  0  0  0  0  0999 V2000
    0.2378   -0.4772    1.1289 C   0  0  0  0  0  0  0  0  0  0  0  0
   -0.2240    0.9066   -0.8755 C   0  0  0  0  0  0  0  0  0  0  0  0
    0.3626    0.7872    0.3115 C   0  0  0  0  0  0  0  0  0  0  0  0
   -0.2103   -1.5771    0.3506 O   0  0  0  0  0  0  0  0  0  0  0  0
    1.4497   -0.7304    1.8159 O   0  0  0  0  0  0  0  0  0  0  0  0
    1.1095    1.7843    0.8885 O   0  0  0  0  0  0  0  0  0  0  0  0
    1.8519    0.1294    2.0751 H   0  0  0  0  0  0  0  0  0  0  0  0
    0.0834   -2.4009    0.7891 H   0  0  0  0  0  0  0  0  0  0  0  0
   -0.5311   -0.3099    1.9016 H   0  0  0  0  0  0  0  0  0  0  0  0
    1.1522    2.5614    0.2899 H   0  0  0  0  0  0  0  0  0  0  0  0
   -0.1216    1.8130   -1.4343 H   0  0  0  0  0  0  0  0  0  0  0  0
   -0.7905    0.0990   -1.2923 H   0  0  0  0  0  0  0  0  0  0  0  0
  1  3  1  0
  1  4  1  0
  1  5  1  0
  1  9  1  0
  2  3  2  0
  2 11  1  0
  2 12  1  0
  3  6  1  0
  4  8  1  0
  5  7  1  0
  6 10  1  0
M  END
