C=C.O
     RDKit          3D

  9  7  0  0  0  0  0  0  0  0999 V2000
   -1.8096   -0.1451    0.3487 C   0  0  0  0  0  0  0  0  0  0  0  0
   -0.6027   -0.0520    0.9021 C   0  0  0  0  0  0  0  0  0  0  0  0
   -1.7690    3.1665    1.9936 O   0  0  0  0  0  0  0  0  0  0  0  0
   -1.8495    2.9867    1.0231 H   0  0  0  0  0  0  0  0  0  0  0  0
   -2.6956    0.1009    0.9251 H   0  0  0  0  0  0  0  0  0  0  0  0
   -1.9149   -0.4663   -0.6824 H   0  0  0  0  0  0  0  0  0  0  0  0
   -2.2832    2.4382    2.4244 H   0  0  0  0  0  0  0  0  0  0  0  0
    0.2833   -0.2970    0.3255 H   0  0  0  0  0  0  0  0  0  0  0  0
   -0.4975    0.2701    1.9330 H   0  0  0  0  0  0  0  0  0  0  0  0
  1  2  2  0
  1  5  1  0
  1  6  1  0
  2  8  1  0
  2  9  1  0
  3  4  1  0
  3  7  1  0
M  END
