C=C.O_0
     RDKit          3D

  9  7  0  0  0  0  0  0  0  0999 V2000
   -1.8520   -0.1183    0.3906 C   0  0  0  0  0  0  0  0  0  0  0  0
   -0.6943   -0.0176    1.0030 C   0  0  0  0  0  0  0  0  0  0  0  0
   -2.1705    2.9100    1.8532 O   0  0  0  0  0  0  0  0  0  0  0  0
   -1.9141    2.0355    1.5147 H   0  0  0  0  0  0  0  0  0  0  0  0
   -2.7100   -0.5484    0.8744 H   0  0  0  0  0  0  0  0  0  0  0  0
   -1.9827    0.2073   -0.6253 H   0  0  0  0  0  0  0  0  0  0  0  0
   -1.4255    3.5022    1.6581 H   0  0  0  0  0  0  0  0  0  0  0  0
    0.1691    0.3935    0.5123 H   0  0  0  0  0  0  0  0  0  0  0  0
   -0.5586   -0.3620    2.0120 H   0  0  0  0  0  0  0  0  0  0  0  0
  1  2  2  0
  1  5  1  0
  1  6  1  0
  2  8  1  0
  2  9  1  0
  3  4  1  0
  3  7  1  0
M  END
