CCO.O=C=O_9
     RDKit          3D

 12 10  0  0  0  0  0  0  0  0999 V2000
    0.4028    1.3372    1.2384 C   0  0  0  0  0  0  0  0  0  0  0  0
    0.2584   -0.1712    1.2545 C   0  0  0  0  0  0  0  0  0  0  0  0
   -3.2520    1.0941    0.5785 C   0  0  0  0  0  0  0  0  0  0  0  0
   -3.9194    0.1596    0.4130 O   0  0  0  0  0  0  0  0  0  0  0  0
   -1.0577   -0.5792    0.9344 O   0  0  0  0  0  0  0  0  0  0  0  0
   -2.6089    2.0458    0.7408 O   0  0  0  0  0  0  0  0  0  0  0  0
   -1.1355   -1.5611    0.9408 H   0  0  0  0  0  0  0  0  0  0  0  0
    1.4165    1.6604    1.4872 H   0  0  0  0  0  0  0  0  0  0  0  0
   -0.2840    1.7967    1.9516 H   0  0  0  0  0  0  0  0  0  0  0  0
    0.1518    1.7369    0.2543 H   0  0  0  0  0  0  0  0  0  0  0  0
    0.9504   -0.6331    0.5356 H   0  0  0  0  0  0  0  0  0  0  0  0
    0.5153   -0.5735    2.2451 H   0  0  0  0  0  0  0  0  0  0  0  0
  1  2  1  0
  1  8  1  0
  1  9  1  0
  1 10  1  0
  2  5  1  0
  2 11  1  0
  2 12  1  0
  3  4  2  0
  3  6  2  0
  5  7  1  0
M  END
