CCO.O=C=O
     RDKit          3D

 12 10  0  0  0  0  0  0  0  0999 V2000
    0.4596    1.3286    1.3481 C   0  0  0  0  0  0  0  0  0  0  0  0
    0.0967   -0.1437    1.2313 C   0  0  0  0  0  0  0  0  0  0  0  0
   -3.1908    1.0172   -0.0059 C   0  0  0  0  0  0  0  0  0  0  0  0
   -2.6041    1.4394   -1.0103 O   0  0  0  0  0  0  0  0  0  0  0  0
   -0.8356   -0.4776    2.2209 O   0  0  0  0  0  0  0  0  0  0  0  0
   -3.7766    0.5948    0.9989 O   0  0  0  0  0  0  0  0  0  0  0  0
   -1.0472   -1.4377    2.0858 H   0  0  0  0  0  0  0  0  0  0  0  0
    1.1952    1.5968    0.5607 H   0  0  0  0  0  0  0  0  0  0  0  0
    0.9073    1.5319    2.3440 H   0  0  0  0  0  0  0  0  0  0  0  0
   -0.4481    1.9558    1.2215 H   0  0  0  0  0  0  0  0  0  0  0  0
   -0.3348   -0.3348    0.2236 H   0  0  0  0  0  0  0  0  0  0  0  0
    1.0161   -0.7579    1.3556 H   0  0  0  0  0  0  0  0  0  0  0  0
  1  2  1  0
  1  8  1  0
  1  9  1  0
  1 10  1  0
  2  5  1  0
  2 11  1  0
  2 12  1  0
  3  4  2  0
  3  6  2  0
  5  7  1  0
M  END
