CCO.O=C=O_3
     RDKit          3D

 12 10  0  0  0  0  0  0  0  0999 V2000
    0.8438    0.9464    1.0570 C   0  0  0  0  0  0  0  0  0  0  0  0
   -0.3653    0.5353    1.8725 C   0  0  0  0  0  0  0  0  0  0  0  0
   -3.2505    0.6289   -0.0572 C   0  0  0  0  0  0  0  0  0  0  0  0
   -2.9240    1.6641    0.3522 O   0  0  0  0  0  0  0  0  0  0  0  0
   -1.0884   -0.5286    1.2913 O   0  0  0  0  0  0  0  0  0  0  0  0
   -3.5969   -0.3931   -0.4834 O   0  0  0  0  0  0  0  0  0  0  0  0
   -0.4996   -1.3053    1.1570 H   0  0  0  0  0  0  0  0  0  0  0  0
    0.5471    1.2340    0.0466 H   0  0  0  0  0  0  0  0  0  0  0  0
    1.5523    0.1212    0.9629 H   0  0  0  0  0  0  0  0  0  0  0  0
    1.3730    1.7914    1.5039 H   0  0  0  0  0  0  0  0  0  0  0  0
   -0.0834    0.2466    2.8953 H   0  0  0  0  0  0  0  0  0  0  0  0
   -1.0704    1.3719    1.9763 H   0  0  0  0  0  0  0  0  0  0  0  0
  1  2  1  0
  1  8  1  0
  1  9  1  0
  1 10  1  0
  2  5  1  0
  2 11  1  0
  2 12  1  0
  3  4  2  0
  3  6  2  0
  5  7  1  0
M  END
