CCO.O=C=O_17
     RDKit          3D

 12 10  0  0  0  0  0  0  0  0999 V2000
   -0.5457    0.2426    1.3584 C   0  0  0  0  0  0  0  0  0  0  0  0
    0.7788   -0.4811    1.4938 C   0  0  0  0  0  0  0  0  0  0  0  0
   -3.4836    2.5829   -0.8522 C   0  0  0  0  0  0  0  0  0  0  0  0
   -4.3886    3.1607   -1.2919 O   0  0  0  0  0  0  0  0  0  0  0  0
    0.9834   -1.0257    2.7795 O   0  0  0  0  0  0  0  0  0  0  0  0
   -2.5787    2.0055   -0.4124 O   0  0  0  0  0  0  0  0  0  0  0  0
    0.8884   -0.3242    3.4640 H   0  0  0  0  0  0  0  0  0  0  0  0
   -0.7028    0.6283    0.3483 H   0  0  0  0  0  0  0  0  0  0  0  0
   -0.6047    1.0863    2.0486 H   0  0  0  0  0  0  0  0  0  0  0  0
   -1.3764   -0.4251    1.5939 H   0  0  0  0  0  0  0  0  0  0  0  0
    0.8429   -1.3184    0.7853 H   0  0  0  0  0  0  0  0  0  0  0  0
    1.6247    0.1810    1.2590 H   0  0  0  0  0  0  0  0  0  0  0  0
  1  2  1  0
  1  8  1  0
  1  9  1  0
  1 10  1  0
  2  5  1  0
  2 11  1  0
  2 12  1  0
  3  4  2  0
  3  6  2  0
  5  7  1  0
M  END
