CCO.O=C=O_18
     RDKit          3D

 12 10  0  0  0  0  0  0  0  0999 V2000
    0.3810    1.2825    1.4528 C   0  0  0  0  0  0  0  0  0  0  0  0
   -0.0091   -0.1815    1.4723 C   0  0  0  0  0  0  0  0  0  0  0  0
   -3.4636    1.2846   -0.6625 C   0  0  0  0  0  0  0  0  0  0  0  0
   -2.3543    1.0808   -0.3916 O   0  0  0  0  0  0  0  0  0  0  0  0
    0.4897   -0.8458    2.6169 O   0  0  0  0  0  0  0  0  0  0  0  0
   -4.5731    1.4883   -0.9338 O   0  0  0  0  0  0  0  0  0  0  0  0
    0.2361   -1.7985    2.6134 H   0  0  0  0  0  0  0  0  0  0  0  0
   -0.0048    1.8010    0.5717 H   0  0  0  0  0  0  0  0  0  0  0  0
    1.4670    1.3916    1.4614 H   0  0  0  0  0  0  0  0  0  0  0  0
    0.0004    1.7936    2.3390 H   0  0  0  0  0  0  0  0  0  0  0  0
   -1.1033   -0.2893    1.4571 H   0  0  0  0  0  0  0  0  0  0  0  0
    0.3716   -0.6945    0.5774 H   0  0  0  0  0  0  0  0  0  0  0  0
  1  2  1  0
  1  8  1  0
  1  9  1  0
  1 10  1  0
  2  5  1  0
  2 11  1  0
  2 12  1  0
  3  4  2  0
  3  6  2  0
  5  7  1  0
M  END
