CCO.O=C=O_19
     RDKit          3D

 12 10  0  0  0  0  0  0  0  0999 V2000
    0.4836    1.2711    1.3525 C   0  0  0  0  0  0  0  0  0  0  0  0
   -0.1339   -0.0767    1.6654 C   0  0  0  0  0  0  0  0  0  0  0  0
   -3.5183    1.1919   -0.6806 C   0  0  0  0  0  0  0  0  0  0  0  0
   -2.5868    1.0895    0.0032 O   0  0  0  0  0  0  0  0  0  0  0  0
    0.8077   -0.9727    2.2228 O   0  0  0  0  0  0  0  0  0  0  0  0
   -4.4499    1.2943   -1.3644 O   0  0  0  0  0  0  0  0  0  0  0  0
    0.3926   -1.8439    2.4245 H   0  0  0  0  0  0  0  0  0  0  0  0
   -0.2401    1.9665    0.9204 H   0  0  0  0  0  0  0  0  0  0  0  0
    1.3095    1.1614    0.6474 H   0  0  0  0  0  0  0  0  0  0  0  0
    0.8921    1.7264    2.2565 H   0  0  0  0  0  0  0  0  0  0  0  0
   -0.9688    0.0360    2.3720 H   0  0  0  0  0  0  0  0  0  0  0  0
   -0.5500   -0.5310    0.7545 H   0  0  0  0  0  0  0  0  0  0  0  0
  1  2  1  0
  1  8  1  0
  1  9  1  0
  1 10  1  0
  2  5  1  0
  2 11  1  0
  2 12  1  0
  3  4  2  0
  3  6  2  0
  5  7  1  0
M  END
