CCO.O=C=O_11
     RDKit          3D

 12 10  0  0  0  0  0  0  0  0999 V2000
    0.7455    1.3776    1.5433 C   0  0  0  0  0  0  0  0  0  0  0  0
    0.1444    0.0808    1.0405 C   0  0  0  0  0  0  0  0  0  0  0  0
   -3.4458    0.5217    0.2737 C   0  0  0  0  0  0  0  0  0  0  0  0
   -3.3286   -0.6255    0.1459 O   0  0  0  0  0  0  0  0  0  0  0  0
   -1.0995   -0.1938    1.6541 O   0  0  0  0  0  0  0  0  0  0  0  0
   -3.5732    1.6691    0.3887 O   0  0  0  0  0  0  0  0  0  0  0  0
   -1.5002   -1.0246    1.2945 H   0  0  0  0  0  0  0  0  0  0  0  0
    1.7077    1.5982    1.0748 H   0  0  0  0  0  0  0  0  0  0  0  0
    0.8966    1.3374    2.6235 H   0  0  0  0  0  0  0  0  0  0  0  0
    0.0734    2.2147    1.3456 H   0  0  0  0  0  0  0  0  0  0  0  0
   -0.0039    0.1200   -0.0484 H   0  0  0  0  0  0  0  0  0  0  0  0
    0.8214   -0.7627    1.2380 H   0  0  0  0  0  0  0  0  0  0  0  0
  1  2  1  0
  1  8  1  0
  1  9  1  0
  1 10  1  0
  2  5  1  0
  2 11  1  0
  2 12  1  0
  3  4  2  0
  3  6  2  0
  5  7  1  0
M  END
