CCO.O=C=O_0
     RDKit          3D

 12 10  0  0  0  0  0  0  0  0999 V2000
    1.4331    1.0722    1.7423 C   0  0  0  0  0  0  0  0  0  0  0  0
    0.2564    0.4945    0.9822 C   0  0  0  0  0  0  0  0  0  0  0  0
   -4.4356   -0.1803    0.1743 C   0  0  0  0  0  0  0  0  0  0  0  0
   -3.2862   -0.2545    0.0379 O   0  0  0  0  0  0  0  0  0  0  0  0
   -0.9795    0.8891    1.5435 O   0  0  0  0  0  0  0  0  0  0  0  0
   -5.5855   -0.1067    0.3097 O   0  0  0  0  0  0  0  0  0  0  0  0
   -1.7410    0.5022    1.0334 H   0  0  0  0  0  0  0  0  0  0  0  0
    2.3920    0.7711    1.3134 H   0  0  0  0  0  0  0  0  0  0  0  0
    1.4130    0.7497    2.7848 H   0  0  0  0  0  0  0  0  0  0  0  0
    1.3915    2.1629    1.7440 H   0  0  0  0  0  0  0  0  0  0  0  0
    0.2789    0.8167   -0.0689 H   0  0  0  0  0  0  0  0  0  0  0  0
    0.3006   -0.6042    0.9774 H   0  0  0  0  0  0  0  0  0  0  0  0
  1  2  1  0
  1  8  1  0
  1  9  1  0
  1 10  1  0
  2  5  1  0
  2 11  1  0
  2 12  1  0
  3  4  2  0
  3  6  2  0
  5  7  1  0
M  END
