CCO.O=C=O_5
     RDKit          3D

 12 10  0  0  0  0  0  0  0  0999 V2000
    0.9106    1.0434    1.1329 C   0  0  0  0  0  0  0  0  0  0  0  0
   -0.2894    0.3207    1.7106 C   0  0  0  0  0  0  0  0  0  0  0  0
   -3.4871    0.6994    0.3524 C   0  0  0  0  0  0  0  0  0  0  0  0
   -3.2149    1.5089    1.1375 O   0  0  0  0  0  0  0  0  0  0  0  0
   -0.9779   -0.4591    0.7564 O   0  0  0  0  0  0  0  0  0  0  0  0
   -3.7849   -0.0962   -0.4378 O   0  0  0  0  0  0  0  0  0  0  0  0
   -0.3620   -1.0991    0.3335 H   0  0  0  0  0  0  0  0  0  0  0  0
    1.6449    0.3355    0.7441 H   0  0  0  0  0  0  0  0  0  0  0  0
    1.4110    1.6685    1.8766 H   0  0  0  0  0  0  0  0  0  0  0  0
    0.6105    1.6858    0.3030 H   0  0  0  0  0  0  0  0  0  0  0  0
   -0.0032   -0.3301    2.5494 H   0  0  0  0  0  0  0  0  0  0  0  0
   -1.0198    1.0350    2.1157 H   0  0  0  0  0  0  0  0  0  0  0  0
  1  2  1  0
  1  8  1  0
  1  9  1  0
  1 10  1  0
  2  5  1  0
  2 11  1  0
  2 12  1  0
  3  4  2  0
  3  6  2  0
  5  7  1  0
M  END
