CCO.O=C=O_12
     RDKit          3D

 12 10  0  0  0  0  0  0  0  0999 V2000
    1.0121    1.2603    1.2829 C   0  0  0  0  0  0  0  0  0  0  0  0
    0.2301   -0.0373    1.3081 C   0  0  0  0  0  0  0  0  0  0  0  0
   -3.8567    0.6874    0.4095 C   0  0  0  0  0  0  0  0  0  0  0  0
   -3.9655    1.8285    0.2304 O   0  0  0  0  0  0  0  0  0  0  0  0
   -1.1400    0.1692    1.0281 O   0  0  0  0  0  0  0  0  0  0  0  0
   -3.7657   -0.4558    0.5854 O   0  0  0  0  0  0  0  0  0  0  0  0
   -1.6416   -0.6842    1.0464 H   0  0  0  0  0  0  0  0  0  0  0  0
    2.0728    1.1098    1.4986 H   0  0  0  0  0  0  0  0  0  0  0  0
    0.6142    1.9631    2.0172 H   0  0  0  0  0  0  0  0  0  0  0  0
    0.9306    1.7391    0.3054 H   0  0  0  0  0  0  0  0  0  0  0  0
    0.6327   -0.7462    0.5702 H   0  0  0  0  0  0  0  0  0  0  0  0
    0.3146   -0.5211    2.2919 H   0  0  0  0  0  0  0  0  0  0  0  0
  1  2  1  0
  1  8  1  0
  1  9  1  0
  1 10  1  0
  2  5  1  0
  2 11  1  0
  2 12  1  0
  3  4  2  0
  3  6  2  0
  5  7  1  0
M  END
