CCO.O=C=O_15
     RDKit          3D

 12 10  0  0  0  0  0  0  0  0999 V2000
    0.4864    1.1298    1.3272 C   0  0  0  0  0  0  0  0  0  0  0  0
   -0.3243   -0.1106    1.6447 C   0  0  0  0  0  0  0  0  0  0  0  0
   -3.4826    1.1775   -0.6728 C   0  0  0  0  0  0  0  0  0  0  0  0
   -2.5631    1.4213   -0.0089 O   0  0  0  0  0  0  0  0  0  0  0  0
    0.4742   -1.2355    1.9407 O   0  0  0  0  0  0  0  0  0  0  0  0
   -4.4025    0.9347   -1.3369 O   0  0  0  0  0  0  0  0  0  0  0  0
    1.1036   -1.0226    2.6674 H   0  0  0  0  0  0  0  0  0  0  0  0
   -0.1501    1.9777    1.0627 H   0  0  0  0  0  0  0  0  0  0  0  0
    1.1621    0.9449    0.4902 H   0  0  0  0  0  0  0  0  0  0  0  0
    1.1007    1.4265    2.1794 H   0  0  0  0  0  0  0  0  0  0  0  0
   -1.0086    0.0613    2.4879 H   0  0  0  0  0  0  0  0  0  0  0  0
   -0.9583   -0.3923    0.7928 H   0  0  0  0  0  0  0  0  0  0  0  0
  1  2  1  0
  1  8  1  0
  1  9  1  0
  1 10  1  0
  2  5  1  0
  2 11  1  0
  2 12  1  0
  3  4  2  0
  3  6  2  0
  5  7  1  0
M  END
