CCO.O=C=O_14
     RDKit          3D

 12 10  0  0  0  0  0  0  0  0999 V2000
    0.3717    1.1332    1.6350 C   0  0  0  0  0  0  0  0  0  0  0  0
   -0.3973   -0.1726    1.6285 C   0  0  0  0  0  0  0  0  0  0  0  0
   -3.2087    1.3285   -0.9864 C   0  0  0  0  0  0  0  0  0  0  0  0
   -3.9381    1.1361   -1.8681 O   0  0  0  0  0  0  0  0  0  0  0  0
    0.4359   -1.3085    1.7089 O   0  0  0  0  0  0  0  0  0  0  0  0
   -2.4800    1.5219   -0.1048 O   0  0  0  0  0  0  0  0  0  0  0  0
    1.0225   -1.2433    2.4970 H   0  0  0  0  0  0  0  0  0  0  0  0
   -0.2888    1.9974    1.5309 H   0  0  0  0  0  0  0  0  0  0  0  0
    1.0907    1.1610    0.8143 H   0  0  0  0  0  0  0  0  0  0  0  0
    0.9348    1.2529    2.5626 H   0  0  0  0  0  0  0  0  0  0  0  0
   -1.1240   -0.2156    2.4524 H   0  0  0  0  0  0  0  0  0  0  0  0
   -0.9811   -0.2781    0.7038 H   0  0  0  0  0  0  0  0  0  0  0  0
  1  2  1  0
  1  8  1  0
  1  9  1  0
  1 10  1  0
  2  5  1  0
  2 11  1  0
  2 12  1  0
  3  4  2  0
  3  6  2  0
  5  7  1  0
M  END
