CCO.O=C=O_2
     RDKit          3D

 12 10  0  0  0  0  0  0  0  0999 V2000
    0.6565    1.2295    1.5476 C   0  0  0  0  0  0  0  0  0  0  0  0
   -0.0138   -0.0220    1.0180 C   0  0  0  0  0  0  0  0  0  0  0  0
   -3.2272    0.6344   -0.1227 C   0  0  0  0  0  0  0  0  0  0  0  0
   -2.3950    0.8842   -0.8913 O   0  0  0  0  0  0  0  0  0  0  0  0
   -1.2547   -0.2881    1.6358 O   0  0  0  0  0  0  0  0  0  0  0  0
   -4.0789    0.3977    0.6287 O   0  0  0  0  0  0  0  0  0  0  0  0
   -1.1401   -0.3593    2.6104 H   0  0  0  0  0  0  0  0  0  0  0  0
    0.0068    2.0974    1.4204 H   0  0  0  0  0  0  0  0  0  0  0  0
    1.5989    1.4389    1.0358 H   0  0  0  0  0  0  0  0  0  0  0  0
    0.8692    1.1390    2.6144 H   0  0  0  0  0  0  0  0  0  0  0  0
   -0.2140    0.0666   -0.0589 H   0  0  0  0  0  0  0  0  0  0  0  0
    0.6300   -0.9055    1.1359 H   0  0  0  0  0  0  0  0  0  0  0  0
  1  2  1  0
  1  8  1  0
  1  9  1  0
  1 10  1  0
  2  5  1  0
  2 11  1  0
  2 12  1  0
  3  4  2  0
  3  6  2  0
  5  7  1  0
M  END
