C=O.OOC=C_12
     RDKit          3D

 12 10  0  0  0  0  0  0  0  0999 V2000
   -2.9833    2.3387    2.2698 C   0  0  0  0  0  0  0  0  0  0  0  0
   -1.0858   -1.4331    0.3540 C   0  0  0  0  0  0  0  0  0  0  0  0
   -0.5764   -0.5479    1.1923 C   0  0  0  0  0  0  0  0  0  0  0  0
    0.7341   -0.5275    1.5652 O   0  0  0  0  0  0  0  0  0  0  0  0
    1.4619   -1.6663    1.0069 O   0  0  0  0  0  0  0  0  0  0  0  0
   -2.9536    1.2305    1.8439 O   0  0  0  0  0  0  0  0  0  0  0  0
    1.7435   -2.1632    1.7940 H   0  0  0  0  0  0  0  0  0  0  0  0
   -2.0611    2.8843    2.4012 H   0  0  0  0  0  0  0  0  0  0  0  0
   -3.9327    2.7866    2.5203 H   0  0  0  0  0  0  0  0  0  0  0  0
   -1.1948    0.2247    1.6272 H   0  0  0  0  0  0  0  0  0  0  0  0
   -2.1219   -1.4167    0.0804 H   0  0  0  0  0  0  0  0  0  0  0  0
   -0.4472   -2.1789   -0.0748 H   0  0  0  0  0  0  0  0  0  0  0  0
  1  6  2  0
  1  8  1  0
  1  9  1  0
  2  3  2  0
  2 11  1  0
  2 12  1  0
  3  4  1  0
  3 10  1  0
  4  5  1  0
  5  7  1  0
M  END
