C=O.OOC=C
     RDKit          3D

 12 10  0  0  0  0  0  0  0  0999 V2000
   -2.2157    2.0188    1.9181 C   0  0  0  0  0  0  0  0  0  0  0  0
   -1.7303   -1.2973    0.3282 C   0  0  0  0  0  0  0  0  0  0  0  0
   -0.8139   -1.2255    1.2843 C   0  0  0  0  0  0  0  0  0  0  0  0
    0.2143   -0.2895    1.1980 O   0  0  0  0  0  0  0  0  0  0  0  0
    1.1444   -0.2003    2.1597 O   0  0  0  0  0  0  0  0  0  0  0  0
   -2.0699    2.3477    0.7529 O   0  0  0  0  0  0  0  0  0  0  0  0
    1.6994   -1.0165    2.0628 H   0  0  0  0  0  0  0  0  0  0  0  0
   -1.6463    2.5141    2.6967 H   0  0  0  0  0  0  0  0  0  0  0  0
   -2.9127    1.2289    2.1752 H   0  0  0  0  0  0  0  0  0  0  0  0
   -0.8676   -1.8953    2.1338 H   0  0  0  0  0  0  0  0  0  0  0  0
   -2.5305   -2.0228    0.3949 H   0  0  0  0  0  0  0  0  0  0  0  0
   -1.6885   -0.6312   -0.5241 H   0  0  0  0  0  0  0  0  0  0  0  0
  1  6  2  0
  1  8  1  0
  1  9  1  0
  2  3  2  0
  2 11  1  0
  2 12  1  0
  3  4  1  0
  3 10  1  0
  4  5  1  0
  5  7  1  0
M  END
