C=O.OOC=C_4
     RDKit          3D

 12 10  0  0  0  0  0  0  0  0999 V2000
   -2.0260    2.0905    1.7761 C   0  0  0  0  0  0  0  0  0  0  0  0
   -1.6360   -1.3457    0.7572 C   0  0  0  0  0  0  0  0  0  0  0  0
   -0.3409   -1.5792    0.6375 C   0  0  0  0  0  0  0  0  0  0  0  0
    0.6264   -0.7903    1.1907 O   0  0  0  0  0  0  0  0  0  0  0  0
    0.0741    0.1237    2.1891 O   0  0  0  0  0  0  0  0  0  0  0  0
   -2.9272    1.3158    1.7675 O   0  0  0  0  0  0  0  0  0  0  0  0
    0.3731   -0.2637    3.0280 H   0  0  0  0  0  0  0  0  0  0  0  0
   -1.0152    1.7240    1.6644 H   0  0  0  0  0  0  0  0  0  0  0  0
   -2.2232    3.1422    1.9094 H   0  0  0  0  0  0  0  0  0  0  0  0
    0.0184   -2.4302    0.0753 H   0  0  0  0  0  0  0  0  0  0  0  0
   -2.3688   -1.9861    0.3095 H   0  0  0  0  0  0  0  0  0  0  0  0
   -1.9718   -0.4698    1.2758 H   0  0  0  0  0  0  0  0  0  0  0  0
  1  6  2  0
  1  8  1  0
  1  9  1  0
  2  3  2  0
  2 11  1  0
  2 12  1  0
  3  4  1  0
  3 10  1  0
  4  5  1  0
  5  7  1  0
M  END
