C=O.OOC=C_7
     RDKit          3D

 12 10  0  0  0  0  0  0  0  0999 V2000
   -2.0618    2.1922    2.3051 C   0  0  0  0  0  0  0  0  0  0  0  0
   -1.2396   -1.8063    0.3005 C   0  0  0  0  0  0  0  0  0  0  0  0
   -1.3161   -0.7220    1.0510 C   0  0  0  0  0  0  0  0  0  0  0  0
   -0.2264   -0.0596    1.5377 O   0  0  0  0  0  0  0  0  0  0  0  0
    1.0155   -0.7419    1.1788 O   0  0  0  0  0  0  0  0  0  0  0  0
   -3.0466    1.5493    2.1342 O   0  0  0  0  0  0  0  0  0  0  0  0
    1.3628   -1.0494    2.0334 H   0  0  0  0  0  0  0  0  0  0  0  0
   -2.1408    3.2167    2.6325 H   0  0  0  0  0  0  0  0  0  0  0  0
   -1.0970    1.7405    2.1235 H   0  0  0  0  0  0  0  0  0  0  0  0
   -2.2742   -0.2930    1.3140 H   0  0  0  0  0  0  0  0  0  0  0  0
   -2.1163   -2.2986   -0.0697 H   0  0  0  0  0  0  0  0  0  0  0  0
   -0.2767   -2.1967    0.0394 H   0  0  0  0  0  0  0  0  0  0  0  0
  1  6  2  0
  1  8  1  0
  1  9  1  0
  2  3  2  0
  2 11  1  0
  2 12  1  0
  3  4  1  0
  3 10  1  0
  4  5  1  0
  5  7  1  0
M  END
