C=O.OOC=C_6
     RDKit          3D

 12 10  0  0  0  0  0  0  0  0999 V2000
   -1.6569    2.2663    2.0371 C   0  0  0  0  0  0  0  0  0  0  0  0
   -1.7993   -1.8894    0.1718 C   0  0  0  0  0  0  0  0  0  0  0  0
   -1.0580   -1.4027    1.1543 C   0  0  0  0  0  0  0  0  0  0  0  0
   -0.4268   -0.1948    1.1027 O   0  0  0  0  0  0  0  0  0  0  0  0
    0.3363    0.0379    2.3317 O   0  0  0  0  0  0  0  0  0  0  0  0
   -1.5552    3.4417    2.1710 O   0  0  0  0  0  0  0  0  0  0  0  0
    1.2596   -0.0837    2.0581 H   0  0  0  0  0  0  0  0  0  0  0  0
   -2.6306    1.8112    1.9600 H   0  0  0  0  0  0  0  0  0  0  0  0
   -0.7646    1.6613    1.9957 H   0  0  0  0  0  0  0  0  0  0  0  0
   -0.9159   -1.9529    2.0741 H   0  0  0  0  0  0  0  0  0  0  0  0
   -2.2814   -2.8427    0.2514 H   0  0  0  0  0  0  0  0  0  0  0  0
   -1.9244   -1.3213   -0.7275 H   0  0  0  0  0  0  0  0  0  0  0  0
  1  6  2  0
  1  8  1  0
  1  9  1  0
  2  3  2  0
  2 11  1  0
  2 12  1  0
  3  4  1  0
  3 10  1  0
  4  5  1  0
  5  7  1  0
M  END
