C=O.OOC=C_9
     RDKit          3D

 12 10  0  0  0  0  0  0  0  0999 V2000
   -1.7584    2.0183    2.3992 C   0  0  0  0  0  0  0  0  0  0  0  0
   -1.6350   -1.8415   -0.0159 C   0  0  0  0  0  0  0  0  0  0  0  0
   -1.1034   -0.9487    0.8034 C   0  0  0  0  0  0  0  0  0  0  0  0
    0.2316   -0.6654    0.8525 O   0  0  0  0  0  0  0  0  0  0  0  0
    0.5507    0.1929    2.0011 O   0  0  0  0  0  0  0  0  0  0  0  0
   -2.6703    1.2561    2.4031 O   0  0  0  0  0  0  0  0  0  0  0  0
    1.0771   -0.3904    2.5708 H   0  0  0  0  0  0  0  0  0  0  0  0
   -1.9178    3.0491    2.6726 H   0  0  0  0  0  0  0  0  0  0  0  0
   -0.7754    1.6600    2.1279 H   0  0  0  0  0  0  0  0  0  0  0  0
   -1.7244   -0.3801    1.4830 H   0  0  0  0  0  0  0  0  0  0  0  0
   -2.6892   -2.0320   -0.0307 H   0  0  0  0  0  0  0  0  0  0  0  0
   -1.0029   -2.3872   -0.6865 H   0  0  0  0  0  0  0  0  0  0  0  0
  1  6  2  0
  1  8  1  0
  1  9  1  0
  2  3  2  0
  2 11  1  0
  2 12  1  0
  3  4  1  0
  3 10  1  0
  4  5  1  0
  5  7  1  0
M  END
