C=O.OOC=C_0
     RDKit          3D

 12 10  0  0  0  0  0  0  0  0999 V2000
   -1.6418    2.6599    2.4252 C   0  0  0  0  0  0  0  0  0  0  0  0
   -1.0232   -2.4597    0.9059 C   0  0  0  0  0  0  0  0  0  0  0  0
   -1.2715   -1.4086    0.1439 C   0  0  0  0  0  0  0  0  0  0  0  0
   -0.6928   -0.1892    0.3411 O   0  0  0  0  0  0  0  0  0  0  0  0
    0.1407   -0.1936    1.5440 O   0  0  0  0  0  0  0  0  0  0  0  0
   -1.1279    1.8567    3.1337 O   0  0  0  0  0  0  0  0  0  0  0  0
   -0.2859    0.4793    2.1153 H   0  0  0  0  0  0  0  0  0  0  0  0
   -2.1145    3.5273    2.8598 H   0  0  0  0  0  0  0  0  0  0  0  0
   -1.6257    2.5120    1.3550 H   0  0  0  0  0  0  0  0  0  0  0  0
   -1.9562   -1.4766   -0.6898 H   0  0  0  0  0  0  0  0  0  0  0  0
   -1.4884   -3.4085    0.7284 H   0  0  0  0  0  0  0  0  0  0  0  0
   -0.3301   -2.3678    1.7180 H   0  0  0  0  0  0  0  0  0  0  0  0
  1  6  2  0
  1  8  1  0
  1  9  1  0
  2  3  2  0
  2 11  1  0
  2 12  1  0
  3  4  1  0
  3 10  1  0
  4  5  1  0
  5  7  1  0
M  END
