C=O.OOC=C_5
     RDKit          3D

 12 10  0  0  0  0  0  0  0  0999 V2000
   -1.6839    2.2078    1.9916 C   0  0  0  0  0  0  0  0  0  0  0  0
   -1.7803   -1.9221    0.2690 C   0  0  0  0  0  0  0  0  0  0  0  0
   -0.8307   -1.1600    0.7881 C   0  0  0  0  0  0  0  0  0  0  0  0
   -0.8404   -0.7091    2.0758 O   0  0  0  0  0  0  0  0  0  0  0  0
    0.3174    0.1532    2.3312 O   0  0  0  0  0  0  0  0  0  0  0  0
   -2.6430    2.6513    1.4501 O   0  0  0  0  0  0  0  0  0  0  0  0
    0.8866   -0.3930    2.8963 H   0  0  0  0  0  0  0  0  0  0  0  0
   -1.4534    1.1605    1.8741 H   0  0  0  0  0  0  0  0  0  0  0  0
   -1.0484    2.8467    2.5829 H   0  0  0  0  0  0  0  0  0  0  0  0
    0.0172   -0.8425    0.1973 H   0  0  0  0  0  0  0  0  0  0  0  0
   -1.7428   -2.2502   -0.7500 H   0  0  0  0  0  0  0  0  0  0  0  0
   -2.6155   -2.2116    0.8739 H   0  0  0  0  0  0  0  0  0  0  0  0
  1  6  2  0
  1  8  1  0
  1  9  1  0
  2  3  2  0
  2 11  1  0
  2 12  1  0
  3  4  1  0
  3 10  1  0
  4  5  1  0
  5  7  1  0
M  END
