C=O.OOC=C_1
     RDKit          3D

 12 10  0  0  0  0  0  0  0  0999 V2000
   -1.8813    2.0345    1.9480 C   0  0  0  0  0  0  0  0  0  0  0  0
   -1.3223   -1.4983    0.2957 C   0  0  0  0  0  0  0  0  0  0  0  0
   -1.1938   -1.5015    1.6112 C   0  0  0  0  0  0  0  0  0  0  0  0
   -0.4144   -0.6125    2.2926 O   0  0  0  0  0  0  0  0  0  0  0  0
    0.3533    0.2344    1.3816 O   0  0  0  0  0  0  0  0  0  0  0  0
   -2.9776    2.2559    1.5496 O   0  0  0  0  0  0  0  0  0  0  0  0
    1.2694   -0.0509    1.5280 H   0  0  0  0  0  0  0  0  0  0  0  0
   -1.4380    1.0714    1.7494 H   0  0  0  0  0  0  0  0  0  0  0  0
   -1.3404    2.7870    2.4985 H   0  0  0  0  0  0  0  0  0  0  0  0
   -1.7213   -2.2230    2.2202 H   0  0  0  0  0  0  0  0  0  0  0  0
   -1.9498   -2.2036   -0.2112 H   0  0  0  0  0  0  0  0  0  0  0  0
   -0.8012   -0.7621   -0.2830 H   0  0  0  0  0  0  0  0  0  0  0  0
  1  6  2  0
  1  8  1  0
  1  9  1  0
  2  3  2  0
  2 11  1  0
  2 12  1  0
  3  4  1  0
  3 10  1  0
  4  5  1  0
  5  7  1  0
M  END
