O=COC(=O)C.[H][H]_2
     RDKit          3D

 12 10  0  0  0  0  0  0  0  0999 V2000
    0.7974    0.8852    1.3151 C   0  0  0  0  0  0  0  0  0  0  0  0
    2.2135    0.6986    1.7408 C   0  0  0  0  0  0  0  0  0  0  0  0
   -1.0041   -0.0054    0.1636 C   0  0  0  0  0  0  0  0  0  0  0  0
    0.2323    1.8947    1.6522 O   0  0  0  0  0  0  0  0  0  0  0  0
    0.2787   -0.1347    0.5703 O   0  0  0  0  0  0  0  0  0  0  0  0
   -1.8060    0.8676    0.3379 O   0  0  0  0  0  0  0  0  0  0  0  0
    2.6068   -0.2413    1.3522 H   0  0  0  0  0  0  0  0  0  0  0  0
   -2.0289    2.8117    1.8575 H   0  0  0  0  0  0  0  0  0  0  0  0
   -2.4444    3.3065    2.2886 H   0  0  0  0  0  0  0  0  0  0  0  0
   -1.3574   -0.8456   -0.4219 H   0  0  0  0  0  0  0  0  0  0  0  0
    2.2800    0.6856    2.8291 H   0  0  0  0  0  0  0  0  0  0  0  0
    2.8283    1.5189    1.3693 H   0  0  0  0  0  0  0  0  0  0  0  0
  1  2  1  0
  1  4  2  0
  1  5  1  0
  2  7  1  0
  2 11  1  0
  2 12  1  0
  3  5  1  0
  3  6  2  0
  3 10  1  0
  8  9  1  0
M  END
