O=COC(=O)C.[H][H]_9
     RDKit          3D

 12 10  0  0  0  0  0  0  0  0999 V2000
    1.1658    0.7727    1.5756 C   0  0  0  0  0  0  0  0  0  0  0  0
    2.5601    0.2729    1.7407 C   0  0  0  0  0  0  0  0  0  0  0  0
   -0.7706    0.7018    0.3069 C   0  0  0  0  0  0  0  0  0  0  0  0
    0.7449    1.5581    2.3869 O   0  0  0  0  0  0  0  0  0  0  0  0
    0.4980    0.2741    0.4941 O   0  0  0  0  0  0  0  0  0  0  0  0
   -1.4494    1.4657    0.9325 O   0  0  0  0  0  0  0  0  0  0  0  0
    2.8097   -0.4281    0.9437 H   0  0  0  0  0  0  0  0  0  0  0  0
   -3.4563    2.7481    1.5031 H   0  0  0  0  0  0  0  0  0  0  0  0
   -4.1898    2.9317    1.3253 H   0  0  0  0  0  0  0  0  0  0  0  0
   -1.2462    0.2716   -0.5662 H   0  0  0  0  0  0  0  0  0  0  0  0
    2.6667   -0.2323    2.7011 H   0  0  0  0  0  0  0  0  0  0  0  0
    3.2636    1.1056    1.7111 H   0  0  0  0  0  0  0  0  0  0  0  0
  1  2  1  0
  1  4  2  0
  1  5  1  0
  2  7  1  0
  2 11  1  0
  2 12  1  0
  3  5  1  0
  3  6  2  0
  3 10  1  0
  8  9  1  0
M  END
