O=COC(=O)C.[H][H]_10
     RDKit          3D

 12 10  0  0  0  0  0  0  0  0999 V2000
   -0.1032    0.3199    1.4658 C   0  0  0  0  0  0  0  0  0  0  0  0
    0.5801    1.6407    1.5620 C   0  0  0  0  0  0  0  0  0  0  0  0
   -1.0063   -1.2865    0.0626 C   0  0  0  0  0  0  0  0  0  0  0  0
   -0.3489   -0.2674    2.4891 O   0  0  0  0  0  0  0  0  0  0  0  0
   -0.3855   -0.0929    0.1953 O   0  0  0  0  0  0  0  0  0  0  0  0
   -1.3714   -2.0847    0.8781 O   0  0  0  0  0  0  0  0  0  0  0  0
   -0.0305    2.3384    2.1360 H   0  0  0  0  0  0  0  0  0  0  0  0
    2.0730    4.4697    1.9146 H   0  0  0  0  0  0  0  0  0  0  0  0
    2.1011    4.3771    2.6853 H   0  0  0  0  0  0  0  0  0  0  0  0
   -1.2021   -1.5578   -0.9677 H   0  0  0  0  0  0  0  0  0  0  0  0
    0.7491    2.0552    0.5676 H   0  0  0  0  0  0  0  0  0  0  0  0
    1.5408    1.5301    2.0660 H   0  0  0  0  0  0  0  0  0  0  0  0
  1  2  1  0
  1  4  2  0
  1  5  1  0
  2  7  1  0
  2 11  1  0
  2 12  1  0
  3  5  1  0
  3  6  2  0
  3 10  1  0
  8  9  1  0
M  END
