O=COC(=O)C.[H][H]_11
     RDKit          3D

 12 10  0  0  0  0  0  0  0  0999 V2000
    0.1559    0.1876    1.5396 C   0  0  0  0  0  0  0  0  0  0  0  0
    0.8600    1.4919    1.6936 C   0  0  0  0  0  0  0  0  0  0  0  0
   -1.1003   -1.1729    0.1482 C   0  0  0  0  0  0  0  0  0  0  0  0
    0.1719   -0.5790    2.4694 O   0  0  0  0  0  0  0  0  0  0  0  0
   -0.4478   -0.0029    0.3299 O   0  0  0  0  0  0  0  0  0  0  0  0
   -1.2586   -2.1129    0.8741 O   0  0  0  0  0  0  0  0  0  0  0  0
    0.4278    2.0561    2.5205 H   0  0  0  0  0  0  0  0  0  0  0  0
    1.6829    4.6370    1.9473 H   0  0  0  0  0  0  0  0  0  0  0  0
    0.9723    4.7943    1.6754 H   0  0  0  0  0  0  0  0  0  0  0  0
   -1.5565   -1.2641   -0.8301 H   0  0  0  0  0  0  0  0  0  0  0  0
    0.7724    2.0808    0.7800 H   0  0  0  0  0  0  0  0  0  0  0  0
    1.9165    1.3260    1.9064 H   0  0  0  0  0  0  0  0  0  0  0  0
  1  2  1  0
  1  4  2  0
  1  5  1  0
  2  7  1  0
  2 11  1  0
  2 12  1  0
  3  5  1  0
  3  6  2  0
  3 10  1  0
  8  9  1  0
M  END
