O=COC(=O)C.[H][H]_4
     RDKit          3D

 12 10  0  0  0  0  0  0  0  0999 V2000
    0.2674    0.8378    1.0560 C   0  0  0  0  0  0  0  0  0  0  0  0
    1.6335    1.2266    1.5075 C   0  0  0  0  0  0  0  0  0  0  0  0
   -1.0457   -0.7949    0.0690 C   0  0  0  0  0  0  0  0  0  0  0  0
   -0.6311    1.6230    1.2245 O   0  0  0  0  0  0  0  0  0  0  0  0
    0.1775   -0.4009    0.4888 O   0  0  0  0  0  0  0  0  0  0  0  0
   -2.1096   -0.2445    0.1004 O   0  0  0  0  0  0  0  0  0  0  0  0
    1.9263    2.1707    1.0472 H   0  0  0  0  0  0  0  0  0  0  0  0
    0.0592    3.5639    3.2138 H   0  0  0  0  0  0  0  0  0  0  0  0
   -0.6377    3.4319    2.8970 H   0  0  0  0  0  0  0  0  0  0  0  0
   -1.0518   -1.7846   -0.3713 H   0  0  0  0  0  0  0  0  0  0  0  0
    2.3578    0.4597    1.2314 H   0  0  0  0  0  0  0  0  0  0  0  0
    1.6505    1.3530    2.5904 H   0  0  0  0  0  0  0  0  0  0  0  0
  1  2  1  0
  1  4  2  0
  1  5  1  0
  2  7  1  0
  2 11  1  0
  2 12  1  0
  3  5  1  0
  3  6  2  0
  3 10  1  0
  8  9  1  0
M  END
