O=COC(=O)C.[H][H]_1
     RDKit          3D

 12 10  0  0  0  0  0  0  0  0999 V2000
    0.5730    0.7019    1.6636 C   0  0  0  0  0  0  0  0  0  0  0  0
    2.0301    1.0043    1.7424 C   0  0  0  0  0  0  0  0  0  0  0  0
   -1.1680   -0.0681    0.3442 C   0  0  0  0  0  0  0  0  0  0  0  0
   -0.1059    0.9247    2.6340 O   0  0  0  0  0  0  0  0  0  0  0  0
    0.1530    0.1907    0.4692 O   0  0  0  0  0  0  0  0  0  0  0  0
   -2.0817    0.0927    1.1026 O   0  0  0  0  0  0  0  0  0  0  0  0
    2.4920    0.4230    2.5410 H   0  0  0  0  0  0  0  0  0  0  0  0
   -1.5137    2.7049    1.4372 H   0  0  0  0  0  0  0  0  0  0  0  0
   -1.0498    3.1315    0.9829 H   0  0  0  0  0  0  0  0  0  0  0  0
   -1.4360   -0.4875   -0.6180 H   0  0  0  0  0  0  0  0  0  0  0  0
    2.1825    2.0628    1.9561 H   0  0  0  0  0  0  0  0  0  0  0  0
    2.5206    0.7608    0.7994 H   0  0  0  0  0  0  0  0  0  0  0  0
  1  2  1  0
  1  4  2  0
  1  5  1  0
  2  7  1  0
  2 11  1  0
  2 12  1  0
  3  5  1  0
  3  6  2  0
  3 10  1  0
  8  9  1  0
M  END
