O=COC(=O)C.[H][H]_8
     RDKit          3D

 12 10  0  0  0  0  0  0  0  0999 V2000
    1.1378    0.5483    1.7610 C   0  0  0  0  0  0  0  0  0  0  0  0
    2.6113    0.3288    1.7182 C   0  0  0  0  0  0  0  0  0  0  0  0
   -0.7489    1.2052    0.5892 C   0  0  0  0  0  0  0  0  0  0  0  0
    0.5605    0.3218    2.7943 O   0  0  0  0  0  0  0  0  0  0  0  0
    0.5865    0.9950    0.5945 O   0  0  0  0  0  0  0  0  0  0  0  0
   -1.5760    1.0673    1.4452 O   0  0  0  0  0  0  0  0  0  0  0  0
    3.0013    0.5579    0.7260 H   0  0  0  0  0  0  0  0  0  0  0  0
   -3.9644    2.4584    0.3428 H   0  0  0  0  0  0  0  0  0  0  0  0
   -3.8378    2.1402    1.0401 H   0  0  0  0  0  0  0  0  0  0  0  0
   -1.1253    1.5600   -0.3627 H   0  0  0  0  0  0  0  0  0  0  0  0
    2.8434   -0.7094    1.9574 H   0  0  0  0  0  0  0  0  0  0  0  0
    3.1078    0.9684    2.4485 H   0  0  0  0  0  0  0  0  0  0  0  0
  1  2  1  0
  1  4  2  0
  1  5  1  0
  2  7  1  0
  2 11  1  0
  2 12  1  0
  3  5  1  0
  3  6  2  0
  3 10  1  0
  8  9  1  0
M  END
