O=COC(=O)C.[H][H]_7
     RDKit          3D

 12 10  0  0  0  0  0  0  0  0999 V2000
    1.1022    0.6353    1.8183 C   0  0  0  0  0  0  0  0  0  0  0  0
    2.5780    0.4315    1.7782 C   0  0  0  0  0  0  0  0  0  0  0  0
   -0.8515    0.8317    0.5898 C   0  0  0  0  0  0  0  0  0  0  0  0
    0.5764    0.7639    2.8950 O   0  0  0  0  0  0  0  0  0  0  0  0
    0.4887    0.6548    0.5987 O   0  0  0  0  0  0  0  0  0  0  0  0
   -1.6374    0.9763    1.4826 O   0  0  0  0  0  0  0  0  0  0  0  0
    3.0867    1.2766    2.2432 H   0  0  0  0  0  0  0  0  0  0  0  0
   -3.6474    2.6786    0.1162 H   0  0  0  0  0  0  0  0  0  0  0  0
   -3.5899    2.4885    0.8672 H   0  0  0  0  0  0  0  0  0  0  0  0
   -1.2780    0.8410   -0.4060 H   0  0  0  0  0  0  0  0  0  0  0  0
    2.9211    0.3369    0.7475 H   0  0  0  0  0  0  0  0  0  0  0  0
    2.8472   -0.4734    2.3239 H   0  0  0  0  0  0  0  0  0  0  0  0
  1  2  1  0
  1  4  2  0
  1  5  1  0
  2  7  1  0
  2 11  1  0
  2 12  1  0
  3  5  1  0
  3  6  2  0
  3 10  1  0
  8  9  1  0
M  END
