C1OOC=C1.O_1
     RDKit          3D

 12 11  0  0  0  0  0  0  0  0999 V2000
    0.3933    1.0507    1.5604 C   0  0  0  0  0  0  0  0  0  0  0  0
    0.8310    0.3036    0.3550 C   0  0  0  0  0  0  0  0  0  0  0  0
   -0.2386   -0.2981   -0.1601 C   0  0  0  0  0  0  0  0  0  0  0  0
   -0.9889    0.8388    1.7003 O   0  0  0  0  0  0  0  0  0  0  0  0
   -3.8936    0.5121    2.1337 O   0  0  0  0  0  0  0  0  0  0  0  0
   -1.3703   -0.0398    0.5709 O   0  0  0  0  0  0  0  0  0  0  0  0
   -2.9528    0.5188    1.8526 H   0  0  0  0  0  0  0  0  0  0  0  0
    0.8820    0.6868    2.4747 H   0  0  0  0  0  0  0  0  0  0  0  0
    0.5578    2.1326    1.4610 H   0  0  0  0  0  0  0  0  0  0  0  0
   -0.2427   -0.9188   -1.0435 H   0  0  0  0  0  0  0  0  0  0  0  0
   -4.3475   -0.0496    1.4827 H   0  0  0  0  0  0  0  0  0  0  0  0
    1.8268    0.2485   -0.0430 H   0  0  0  0  0  0  0  0  0  0  0  0
  1  2  1  0
  1  4  1  0
  1  8  1  0
  1  9  1  0
  2  3  2  0
  2 12  1  0
  3  6  1  0
  3 10  1  0
  4  6  1  0
  5  7  1  0
  5 11  1  0
M  END
