C1OOC=C1.O
     RDKit          3D

 12 11  0  0  0  0  0  0  0  0999 V2000
    0.2090    0.7889    1.7992 C   0  0  0  0  0  0  0  0  0  0  0  0
    0.1096    0.6158    0.3254 C   0  0  0  0  0  0  0  0  0  0  0  0
   -0.3384   -0.5851    0.1088 C   0  0  0  0  0  0  0  0  0  0  0  0
   -0.2242   -0.4291    2.3817 O   0  0  0  0  0  0  0  0  0  0  0  0
   -3.4542    0.7961    0.9695 O   0  0  0  0  0  0  0  0  0  0  0  0
   -0.5348   -1.2002    1.3213 O   0  0  0  0  0  0  0  0  0  0  0  0
   -2.8801    1.5443    0.6677 H   0  0  0  0  0  0  0  0  0  0  0  0
    1.2609    0.9932    2.0899 H   0  0  0  0  0  0  0  0  0  0  0  0
   -0.4475    1.6204    2.1313 H   0  0  0  0  0  0  0  0  0  0  0  0
   -0.5278   -1.0311   -0.8583 H   0  0  0  0  0  0  0  0  0  0  0  0
   -3.0732    0.5280    1.8433 H   0  0  0  0  0  0  0  0  0  0  0  0
    0.3573    1.3445   -0.4349 H   0  0  0  0  0  0  0  0  0  0  0  0
  1  2  1  0
  1  4  1  0
  1  8  1  0
  1  9  1  0
  2  3  2  0
  2 12  1  0
  3  6  1  0
  3 10  1  0
  4  6  1  0
  5  7  1  0
  5 11  1  0
M  END
