C1OOC=C1.O_3
     RDKit          3D

 12 11  0  0  0  0  0  0  0  0999 V2000
    0.4301    0.5588    1.9485 C   0  0  0  0  0  0  0  0  0  0  0  0
   -0.5535    0.1457    0.9180 C   0  0  0  0  0  0  0  0  0  0  0  0
   -0.0345   -0.8790    0.2473 C   0  0  0  0  0  0  0  0  0  0  0  0
    1.5429   -0.2920    1.8262 O   0  0  0  0  0  0  0  0  0  0  0  0
   -3.2953    1.6321    0.6272 O   0  0  0  0  0  0  0  0  0  0  0  0
    1.2114   -1.2143    0.7136 O   0  0  0  0  0  0  0  0  0  0  0  0
   -3.4864    2.4068    0.0746 H   0  0  0  0  0  0  0  0  0  0  0  0
    0.7755    1.5906    1.7993 H   0  0  0  0  0  0  0  0  0  0  0  0
    0.0319    0.4505    2.9662 H   0  0  0  0  0  0  0  0  0  0  0  0
   -0.5149   -1.3993   -0.5672 H   0  0  0  0  0  0  0  0  0  0  0  0
   -4.1346    1.3994    1.0556 H   0  0  0  0  0  0  0  0  0  0  0  0
   -1.5159    0.5862    0.7355 H   0  0  0  0  0  0  0  0  0  0  0  0
  1  2  1  0
  1  4  1  0
  1  8  1  0
  1  9  1  0
  2  3  2  0
  2 12  1  0
  3  6  1  0
  3 10  1  0
  4  6  1  0
  5  7  1  0
  5 11  1  0
M  END
