OC(=C)C=O.O_4
     RDKit          3D

 12 10  0  0  0  0  0  0  0  0999 V2000
    0.5485    0.8137    1.4138 C   0  0  0  0  0  0  0  0  0  0  0  0
   -0.3062   -0.0290    2.0038 C   0  0  0  0  0  0  0  0  0  0  0  0
   -1.6386   -0.2659    1.4290 C   0  0  0  0  0  0  0  0  0  0  0  0
    0.0666   -0.6830    3.1643 O   0  0  0  0  0  0  0  0  0  0  0  0
   -0.7828    2.1381   -1.3259 O   0  0  0  0  0  0  0  0  0  0  0  0
   -2.0543    0.2517    0.4287 O   0  0  0  0  0  0  0  0  0  0  0  0
   -1.2808    1.4982   -0.7759 H   0  0  0  0  0  0  0  0  0  0  0  0
   -0.6556   -1.2655    3.4830 H   0  0  0  0  0  0  0  0  0  0  0  0
    0.2944    1.3379    0.5140 H   0  0  0  0  0  0  0  0  0  0  0  0
   -2.3082   -0.9523    1.9274 H   0  0  0  0  0  0  0  0  0  0  0  0
    1.5166    0.9775    1.8431 H   0  0  0  0  0  0  0  0  0  0  0  0
   -1.3809    2.3711   -2.0540 H   0  0  0  0  0  0  0  0  0  0  0  0
  1  2  2  0
  1  9  1  0
  1 11  1  0
  2  3  1  0
  2  4  1  0
  3  6  2  0
  3 10  1  0
  4  8  1  0
  5  7  1  0
  5 12  1  0
M  END
