OC(=C)C=O.O_3
     RDKit          3D

 12 10  0  0  0  0  0  0  0  0999 V2000
    0.3234    0.8281    1.5810 C   0  0  0  0  0  0  0  0  0  0  0  0
   -0.5509   -0.0793    2.0256 C   0  0  0  0  0  0  0  0  0  0  0  0
   -1.7537   -0.4120    1.2511 C   0  0  0  0  0  0  0  0  0  0  0  0
   -0.3679   -0.7417    3.2231 O   0  0  0  0  0  0  0  0  0  0  0  0
   -0.6540    2.0683   -1.3306 O   0  0  0  0  0  0  0  0  0  0  0  0
   -2.0513    0.0764    0.1958 O   0  0  0  0  0  0  0  0  0  0  0  0
   -1.1423    2.2662   -2.1458 H   0  0  0  0  0  0  0  0  0  0  0  0
    0.4602   -0.4481    3.6588 H   0  0  0  0  0  0  0  0  0  0  0  0
    0.1765    1.3390    0.6513 H   0  0  0  0  0  0  0  0  0  0  0  0
   -2.4304   -1.1538    1.6544 H   0  0  0  0  0  0  0  0  0  0  0  0
    1.1960    1.0613    2.1551 H   0  0  0  0  0  0  0  0  0  0  0  0
   -1.1867    1.3881   -0.8684 H   0  0  0  0  0  0  0  0  0  0  0  0
  1  2  2  0
  1  9  1  0
  1 11  1  0
  2  3  1  0
  2  4  1  0
  3  6  2  0
  3 10  1  0
  4  8  1  0
  5  7  1  0
  5 12  1  0
M  END
