OC(=C)C=O.O_5
     RDKit          3D

 12 10  0  0  0  0  0  0  0  0999 V2000
    1.2890   -0.2551    1.5994 C   0  0  0  0  0  0  0  0  0  0  0  0
    0.0395   -0.1831    2.0696 C   0  0  0  0  0  0  0  0  0  0  0  0
   -1.0054    0.4703    1.2698 C   0  0  0  0  0  0  0  0  0  0  0  0
   -0.2666   -0.7230    3.3050 O   0  0  0  0  0  0  0  0  0  0  0  0
   -2.9138    2.2354   -1.3613 O   0  0  0  0  0  0  0  0  0  0  0  0
   -0.8086    0.9581    0.1906 O   0  0  0  0  0  0  0  0  0  0  0  0
   -2.2055    1.8057   -0.8382 H   0  0  0  0  0  0  0  0  0  0  0  0
   -1.2162   -0.5954    3.5153 H   0  0  0  0  0  0  0  0  0  0  0  0
    1.5525    0.1558    0.6440 H   0  0  0  0  0  0  0  0  0  0  0  0
   -2.0132    0.5261    1.6562 H   0  0  0  0  0  0  0  0  0  0  0  0
    2.0513   -0.7321    2.1830 H   0  0  0  0  0  0  0  0  0  0  0  0
   -2.4842    2.5296   -2.1820 H   0  0  0  0  0  0  0  0  0  0  0  0
  1  2  2  0
  1  9  1  0
  1 11  1  0
  2  3  1  0
  2  4  1  0
  3  6  2  0
  3 10  1  0
  4  8  1  0
  5  7  1  0
  5 12  1  0
M  END
