OC(=C)C=O.O_9
     RDKit          3D

 12 10  0  0  0  0  0  0  0  0999 V2000
    0.6618    0.8249    1.4396 C   0  0  0  0  0  0  0  0  0  0  0  0
   -0.2248   -0.0424    1.9342 C   0  0  0  0  0  0  0  0  0  0  0  0
   -1.5520   -0.2229    1.3472 C   0  0  0  0  0  0  0  0  0  0  0  0
    0.0486   -0.8238    3.0280 O   0  0  0  0  0  0  0  0  0  0  0  0
   -1.1495    1.8914   -0.9243 O   0  0  0  0  0  0  0  0  0  0  0  0
   -2.3391   -1.0037    1.8003 O   0  0  0  0  0  0  0  0  0  0  0  0
   -1.1599    1.5709   -1.8402 H   0  0  0  0  0  0  0  0  0  0  0  0
   -0.7449   -1.3767    3.2056 H   0  0  0  0  0  0  0  0  0  0  0  0
    0.4283    1.4261    0.5845 H   0  0  0  0  0  0  0  0  0  0  0  0
   -1.8485    0.3535    0.4833 H   0  0  0  0  0  0  0  0  0  0  0  0
    1.6206    0.9204    1.9060 H   0  0  0  0  0  0  0  0  0  0  0  0
   -1.7219    2.6746   -0.9129 H   0  0  0  0  0  0  0  0  0  0  0  0
  1  2  2  0
  1  9  1  0
  1 11  1  0
  2  3  1  0
  2  4  1  0
  3  6  2  0
  3 10  1  0
  4  8  1  0
  5  7  1  0
  5 12  1  0
M  END
