OC(=C)C=O.O_8
     RDKit          3D

 12 10  0  0  0  0  0  0  0  0999 V2000
    0.6079    0.3494    2.4070 C   0  0  0  0  0  0  0  0  0  0  0  0
   -0.0712    0.1030    1.2843 C   0  0  0  0  0  0  0  0  0  0  0  0
   -1.4569   -0.3660    1.2833 C   0  0  0  0  0  0  0  0  0  0  0  0
    0.4800    0.2967    0.0406 O   0  0  0  0  0  0  0  0  0  0  0  0
   -1.7511    2.4168   -0.1883 O   0  0  0  0  0  0  0  0  0  0  0  0
   -2.0958   -0.3773    0.2695 O   0  0  0  0  0  0  0  0  0  0  0  0
   -2.4704    1.7599   -0.1937 H   0  0  0  0  0  0  0  0  0  0  0  0
   -0.1281   -0.0861   -0.6334 H   0  0  0  0  0  0  0  0  0  0  0  0
    0.1656    0.2099    3.3719 H   0  0  0  0  0  0  0  0  0  0  0  0
   -1.9343   -0.6907    2.1967 H   0  0  0  0  0  0  0  0  0  0  0  0
    1.6159    0.7046    2.3409 H   0  0  0  0  0  0  0  0  0  0  0  0
   -0.9430    1.8720   -0.1275 H   0  0  0  0  0  0  0  0  0  0  0  0
  1  2  2  0
  1  9  1  0
  1 11  1  0
  2  3  1  0
  2  4  1  0
  3  6  2  0
  3 10  1  0
  4  8  1  0
  5  7  1  0
  5 12  1  0
M  END
