OC(=C)C=O.O_7
     RDKit          3D

 12 10  0  0  0  0  0  0  0  0999 V2000
    0.3797    0.0370    0.6874 C   0  0  0  0  0  0  0  0  0  0  0  0
   -0.7409   -0.3438    1.3074 C   0  0  0  0  0  0  0  0  0  0  0  0
   -0.8835   -1.7179    1.8015 C   0  0  0  0  0  0  0  0  0  0  0  0
   -1.7930    0.5277    1.5047 O   0  0  0  0  0  0  0  0  0  0  0  0
   -1.0418    3.1047    0.3619 O   0  0  0  0  0  0  0  0  0  0  0  0
   -0.0385   -2.5632    1.6885 O   0  0  0  0  0  0  0  0  0  0  0  0
   -1.3830    3.4544   -0.4757 H   0  0  0  0  0  0  0  0  0  0  0  0
   -1.5685    1.4120    1.1274 H   0  0  0  0  0  0  0  0  0  0  0  0
    1.1924   -0.6455    0.5380 H   0  0  0  0  0  0  0  0  0  0  0  0
   -1.8026   -1.9944    2.2991 H   0  0  0  0  0  0  0  0  0  0  0  0
    0.4770    1.0416    0.3294 H   0  0  0  0  0  0  0  0  0  0  0  0
   -0.7782    3.8797    0.8818 H   0  0  0  0  0  0  0  0  0  0  0  0
  1  2  2  0
  1  9  1  0
  1 11  1  0
  2  3  1  0
  2  4  1  0
  3  6  2  0
  3 10  1  0
  4  8  1  0
  5  7  1  0
  5 12  1  0
M  END
