OC(=C)C=O.O_1
     RDKit          3D

 12 10  0  0  0  0  0  0  0  0999 V2000
    1.2902   -0.8605    1.7710 C   0  0  0  0  0  0  0  0  0  0  0  0
    0.1812   -0.1316    1.9195 C   0  0  0  0  0  0  0  0  0  0  0  0
   -0.5374    0.4501    0.7865 C   0  0  0  0  0  0  0  0  0  0  0  0
   -0.3625    0.1221    3.1530 O   0  0  0  0  0  0  0  0  0  0  0  0
   -2.9597    2.2581   -1.3064 O   0  0  0  0  0  0  0  0  0  0  0  0
   -1.5304    1.1001    0.9494 O   0  0  0  0  0  0  0  0  0  0  0  0
   -2.4786    1.8685   -0.5469 H   0  0  0  0  0  0  0  0  0  0  0  0
   -1.1669    0.6720    3.0227 H   0  0  0  0  0  0  0  0  0  0  0  0
    1.7094   -1.0549    0.8052 H   0  0  0  0  0  0  0  0  0  0  0  0
   -0.1825    0.3031   -0.2238 H   0  0  0  0  0  0  0  0  0  0  0  0
    1.7732   -1.2611    2.6387 H   0  0  0  0  0  0  0  0  0  0  0  0
   -3.7172    2.7265   -0.9175 H   0  0  0  0  0  0  0  0  0  0  0  0
  1  2  2  0
  1  9  1  0
  1 11  1  0
  2  3  1  0
  2  4  1  0
  3  6  2  0
  3 10  1  0
  4  8  1  0
  5  7  1  0
  5 12  1  0
M  END
