OC(=C)C=O.O_0
     RDKit          3D

 12 10  0  0  0  0  0  0  0  0999 V2000
    1.0742   -0.6466    1.9895 C   0  0  0  0  0  0  0  0  0  0  0  0
    0.0855    0.0687    1.4398 C   0  0  0  0  0  0  0  0  0  0  0  0
   -0.9305   -0.5769    0.6014 C   0  0  0  0  0  0  0  0  0  0  0  0
    0.0193    1.4272    1.6624 O   0  0  0  0  0  0  0  0  0  0  0  0
   -2.3265    2.7434    0.2850 O   0  0  0  0  0  0  0  0  0  0  0  0
   -1.8432   -0.0050    0.0772 O   0  0  0  0  0  0  0  0  0  0  0  0
   -2.3036    1.7805    0.1099 H   0  0  0  0  0  0  0  0  0  0  0  0
   -0.7521    1.8293    1.2036 H   0  0  0  0  0  0  0  0  0  0  0  0
    1.1619   -1.7042    1.8414 H   0  0  0  0  0  0  0  0  0  0  0  0
   -0.8697   -1.6429    0.4320 H   0  0  0  0  0  0  0  0  0  0  0  0
    1.8072   -0.1573    2.5991 H   0  0  0  0  0  0  0  0  0  0  0  0
   -3.1038    3.0761   -0.1899 H   0  0  0  0  0  0  0  0  0  0  0  0
  1  2  2  0
  1  9  1  0
  1 11  1  0
  2  3  1  0
  2  4  1  0
  3  6  2  0
  3 10  1  0
  4  8  1  0
  5  7  1  0
  5 12  1  0
M  END
