C=O.COC=O
     RDKit          3D

 12 10  0  0  0  0  0  0  0  0999 V2000
   -1.7601   -2.2929    1.5558 C   0  0  0  0  0  0  0  0  0  0  0  0
   -1.1136    1.1904    0.0935 C   0  0  0  0  0  0  0  0  0  0  0  0
   -0.8206    0.9845    2.5396 C   0  0  0  0  0  0  0  0  0  0  0  0
   -1.6282    1.1952    1.4197 O   0  0  0  0  0  0  0  0  0  0  0  0
   -2.5895   -2.1322    0.6765 O   0  0  0  0  0  0  0  0  0  0  0  0
    0.4162    0.7749    2.4194 O   0  0  0  0  0  0  0  0  0  0  0  0
   -0.3562    1.9943   -0.0233 H   0  0  0  0  0  0  0  0  0  0  0  0
   -2.0777   -2.5454    2.5613 H   0  0  0  0  0  0  0  0  0  0  0  0
   -0.7048   -2.1800    1.3329 H   0  0  0  0  0  0  0  0  0  0  0  0
   -1.2651    0.9993    3.5251 H   0  0  0  0  0  0  0  0  0  0  0  0
   -1.9434    1.3712   -0.6201 H   0  0  0  0  0  0  0  0  0  0  0  0
   -0.6529    0.2056   -0.1330 H   0  0  0  0  0  0  0  0  0  0  0  0
  1  5  2  0
  1  8  1  0
  1  9  1  0
  2  4  1  0
  2  7  1  0
  2 11  1  0
  2 12  1  0
  3  4  1  0
  3  6  2  0
  3 10  1  0
M  END
