C=O.COC=O_5
     RDKit          3D

 12 10  0  0  0  0  0  0  0  0999 V2000
   -1.7373   -2.4769    1.9105 C   0  0  0  0  0  0  0  0  0  0  0  0
   -0.8869    1.4077   -0.0201 C   0  0  0  0  0  0  0  0  0  0  0  0
   -1.0452    0.7549    2.1093 C   0  0  0  0  0  0  0  0  0  0  0  0
   -1.1257    0.3309    0.8298 O   0  0  0  0  0  0  0  0  0  0  0  0
   -1.6457   -2.0065    2.9975 O   0  0  0  0  0  0  0  0  0  0  0  0
   -0.8086    1.8704    2.4949 O   0  0  0  0  0  0  0  0  0  0  0  0
    0.1124    1.8030    0.1883 H   0  0  0  0  0  0  0  0  0  0  0  0
   -1.5921   -1.8443    1.0470 H   0  0  0  0  0  0  0  0  0  0  0  0
   -1.9644   -3.5256    1.7998 H   0  0  0  0  0  0  0  0  0  0  0  0
   -1.2130    0.0036    2.8715 H   0  0  0  0  0  0  0  0  0  0  0  0
   -1.6363    2.1810    0.1758 H   0  0  0  0  0  0  0  0  0  0  0  0
   -0.9532    1.0665   -1.0569 H   0  0  0  0  0  0  0  0  0  0  0  0
  1  5  2  0
  1  8  1  0
  1  9  1  0
  2  4  1  0
  2  7  1  0
  2 11  1  0
  2 12  1  0
  3  4  1  0
  3  6  2  0
  3 10  1  0
M  END
