C=O.COC=O_7
     RDKit          3D

 12 10  0  0  0  0  0  0  0  0999 V2000
   -2.0277   -3.1743    2.5390 C   0  0  0  0  0  0  0  0  0  0  0  0
   -0.9881    2.3369    0.1147 C   0  0  0  0  0  0  0  0  0  0  0  0
   -0.6900    0.4559    1.2875 C   0  0  0  0  0  0  0  0  0  0  0  0
   -1.5459    1.1142    0.4778 O   0  0  0  0  0  0  0  0  0  0  0  0
   -2.1292   -2.1563    1.9363 O   0  0  0  0  0  0  0  0  0  0  0  0
    0.3914    0.8315    1.6592 O   0  0  0  0  0  0  0  0  0  0  0  0
   -1.6872    2.8646   -0.5399 H   0  0  0  0  0  0  0  0  0  0  0  0
   -2.7447   -3.9638    2.3735 H   0  0  0  0  0  0  0  0  0  0  0  0
   -1.2191   -3.2978    3.2433 H   0  0  0  0  0  0  0  0  0  0  0  0
   -1.0108   -0.5166    1.6408 H   0  0  0  0  0  0  0  0  0  0  0  0
   -0.0441    2.1507   -0.4064 H   0  0  0  0  0  0  0  0  0  0  0  0
   -0.8006    2.9200    1.0216 H   0  0  0  0  0  0  0  0  0  0  0  0
  1  5  2  0
  1  8  1  0
  1  9  1  0
  2  4  1  0
  2  7  1  0
  2 11  1  0
  2 12  1  0
  3  4  1  0
  3  6  2  0
  3 10  1  0
M  END
