C=O.COC=O_3
     RDKit          3D

 12 10  0  0  0  0  0  0  0  0999 V2000
   -2.0421   -3.2875    0.8185 C   0  0  0  0  0  0  0  0  0  0  0  0
   -1.0188    0.6259    1.3007 C   0  0  0  0  0  0  0  0  0  0  0  0
   -0.5592    2.7295    1.8970 C   0  0  0  0  0  0  0  0  0  0  0  0
   -1.0282    1.5460    2.3437 O   0  0  0  0  0  0  0  0  0  0  0  0
   -1.7324   -2.1460    0.9216 O   0  0  0  0  0  0  0  0  0  0  0  0
   -0.1826    2.9906    0.7835 O   0  0  0  0  0  0  0  0  0  0  0  0
   -1.3999   -0.3270    1.6772 H   0  0  0  0  0  0  0  0  0  0  0  0
   -1.7894   -3.8281   -0.0811 H   0  0  0  0  0  0  0  0  0  0  0  0
   -2.5726   -3.7698    1.6257 H   0  0  0  0  0  0  0  0  0  0  0  0
   -0.5218    3.5239    2.6286 H   0  0  0  0  0  0  0  0  0  0  0  0
    0.0072    0.5093    0.9392 H   0  0  0  0  0  0  0  0  0  0  0  0
   -1.6560    0.9981    0.4929 H   0  0  0  0  0  0  0  0  0  0  0  0
  1  5  2  0
  1  8  1  0
  1  9  1  0
  2  4  1  0
  2  7  1  0
  2 11  1  0
  2 12  1  0
  3  4  1  0
  3  6  2  0
  3 10  1  0
M  END
