C=O.COC=O_1
     RDKit          3D

 12 10  0  0  0  0  0  0  0  0999 V2000
   -2.0052   -2.9058    1.9582 C   0  0  0  0  0  0  0  0  0  0  0  0
   -0.7442    1.8898    0.0546 C   0  0  0  0  0  0  0  0  0  0  0  0
   -0.8452    0.9280    2.0728 C   0  0  0  0  0  0  0  0  0  0  0  0
   -0.5594    2.0742    1.4220 O   0  0  0  0  0  0  0  0  0  0  0  0
   -2.1439   -3.6834    2.8449 O   0  0  0  0  0  0  0  0  0  0  0  0
   -1.2062   -0.1129    1.5888 O   0  0  0  0  0  0  0  0  0  0  0  0
   -1.7864    1.6051   -0.1226 H   0  0  0  0  0  0  0  0  0  0  0  0
   -2.2032   -3.2042    0.9416 H   0  0  0  0  0  0  0  0  0  0  0  0
   -1.6799   -1.9020    2.1830 H   0  0  0  0  0  0  0  0  0  0  0  0
   -0.7341    0.9593    3.1487 H   0  0  0  0  0  0  0  0  0  0  0  0
   -0.0773    1.0905   -0.2842 H   0  0  0  0  0  0  0  0  0  0  0  0
   -0.5109    2.8263   -0.4604 H   0  0  0  0  0  0  0  0  0  0  0  0
  1  5  2  0
  1  8  1  0
  1  9  1  0
  2  4  1  0
  2  7  1  0
  2 11  1  0
  2 12  1  0
  3  4  1  0
  3  6  2  0
  3 10  1  0
M  END
