C=O.COC=O_0
     RDKit          3D

 12 10  0  0  0  0  0  0  0  0999 V2000
   -1.5529   -2.3040    1.3622 C   0  0  0  0  0  0  0  0  0  0  0  0
   -1.3484    1.0049    0.3043 C   0  0  0  0  0  0  0  0  0  0  0  0
   -0.5928    1.3228    2.3900 C   0  0  0  0  0  0  0  0  0  0  0  0
   -0.6262    1.8458    1.1457 O   0  0  0  0  0  0  0  0  0  0  0  0
   -1.5236   -1.9274    0.2352 O   0  0  0  0  0  0  0  0  0  0  0  0
   -1.0737    0.2839    2.7617 O   0  0  0  0  0  0  0  0  0  0  0  0
   -0.9405   -0.0063    0.3956 H   0  0  0  0  0  0  0  0  0  0  0  0
   -1.6865   -3.3528    1.5748 H   0  0  0  0  0  0  0  0  0  0  0  0
   -1.4369   -1.5835    2.1603 H   0  0  0  0  0  0  0  0  0  0  0  0
   -0.0641    1.9104    3.1275 H   0  0  0  0  0  0  0  0  0  0  0  0
   -1.2529    1.3632   -0.7246 H   0  0  0  0  0  0  0  0  0  0  0  0
   -2.3975    1.0079    0.6147 H   0  0  0  0  0  0  0  0  0  0  0  0
  1  5  2  0
  1  8  1  0
  1  9  1  0
  2  4  1  0
  2  7  1  0
  2 11  1  0
  2 12  1  0
  3  4  1  0
  3  6  2  0
  3 10  1  0
M  END
