OCO/C=C\O_10
     RDKit          3D

 12 11  0  0  0  0  0  0  0  0999 V2000
   -0.7895   -0.6400    1.2855 C   0  0  0  0  0  0  0  0  0  0  0  0
    1.2221    1.3544    0.9189 C   0  0  0  0  0  0  0  0  0  0  0  0
   -0.0766    1.5292    0.6633 C   0  0  0  0  0  0  0  0  0  0  0  0
   -0.1297   -1.2629    0.2219 O   0  0  0  0  0  0  0  0  0  0  0  0
    1.6882    0.2897    1.6609 O   0  0  0  0  0  0  0  0  0  0  0  0
   -1.1115    0.7253    1.1152 O   0  0  0  0  0  0  0  0  0  0  0  0
    2.6117    0.4513    1.9581 H   0  0  0  0  0  0  0  0  0  0  0  0
   -0.1883   -0.7392    2.1999 H   0  0  0  0  0  0  0  0  0  0  0  0
   -1.7340   -1.1753    1.4427 H   0  0  0  0  0  0  0  0  0  0  0  0
   -0.4037    2.3727    0.0709 H   0  0  0  0  0  0  0  0  0  0  0  0
    0.7435   -0.8310    0.0953 H   0  0  0  0  0  0  0  0  0  0  0  0
    1.9373    2.0634    0.5291 H   0  0  0  0  0  0  0  0  0  0  0  0
  1  4  1  0
  1  6  1  0
  1  8  1  0
  1  9  1  0
  2  3  2  0
  2  5  1  0
  2 12  1  0
  3  6  1  0
  3 10  1  0
  4 11  1  0
  5  7  1  0
M  END
