OCO/C=C\O_11
     RDKit          3D

 12 11  0  0  0  0  0  0  0  0999 V2000
   -0.4042   -0.6661    1.2569 C   0  0  0  0  0  0  0  0  0  0  0  0
    1.1848    1.6647    1.0140 C   0  0  0  0  0  0  0  0  0  0  0  0
    0.0231    1.4692    0.3839 C   0  0  0  0  0  0  0  0  0  0  0  0
   -1.0674   -1.8950    1.1262 O   0  0  0  0  0  0  0  0  0  0  0  0
    1.9244    0.6228    1.5330 O   0  0  0  0  0  0  0  0  0  0  0  0
   -0.5700    0.2275    0.1743 O   0  0  0  0  0  0  0  0  0  0  0  0
    2.7964    0.9429    1.8556 H   0  0  0  0  0  0  0  0  0  0  0  0
    0.6679   -0.8680    1.3636 H   0  0  0  0  0  0  0  0  0  0  0  0
   -0.7602   -0.1805    2.1737 H   0  0  0  0  0  0  0  0  0  0  0  0
   -0.5254    2.3070   -0.0231 H   0  0  0  0  0  0  0  0  0  0  0  0
   -1.0628   -2.1571    0.1823 H   0  0  0  0  0  0  0  0  0  0  0  0
    1.5628    2.6705    1.1213 H   0  0  0  0  0  0  0  0  0  0  0  0
  1  4  1  0
  1  6  1  0
  1  8  1  0
  1  9  1  0
  2  3  2  0
  2  5  1  0
  2 12  1  0
  3  6  1  0
  3 10  1  0
  4 11  1  0
  5  7  1  0
M  END
