OCO/C=C\O_1
     RDKit          3D

 12 11  0  0  0  0  0  0  0  0999 V2000
   -0.8459   -0.7085    1.4575 C   0  0  0  0  0  0  0  0  0  0  0  0
    1.5430    1.8241    0.7323 C   0  0  0  0  0  0  0  0  0  0  0  0
    0.4727    1.0245    0.7319 C   0  0  0  0  0  0  0  0  0  0  0  0
   -1.1662   -1.0746    0.1455 O   0  0  0  0  0  0  0  0  0  0  0  0
    2.5947    1.6142    1.5910 O   0  0  0  0  0  0  0  0  0  0  0  0
    0.3920   -0.0478    1.6010 O   0  0  0  0  0  0  0  0  0  0  0  0
    2.3766    0.8240    2.1357 H   0  0  0  0  0  0  0  0  0  0  0  0
   -0.8278   -1.6047    2.0910 H   0  0  0  0  0  0  0  0  0  0  0  0
   -1.6376   -0.0481    1.8322 H   0  0  0  0  0  0  0  0  0  0  0  0
   -0.3464    1.1992    0.0494 H   0  0  0  0  0  0  0  0  0  0  0  0
   -0.3962   -1.5255   -0.2602 H   0  0  0  0  0  0  0  0  0  0  0  0
    1.6106    2.6608    0.0544 H   0  0  0  0  0  0  0  0  0  0  0  0
  1  4  1  0
  1  6  1  0
  1  8  1  0
  1  9  1  0
  2  3  2  0
  2  5  1  0
  2 12  1  0
  3  6  1  0
  3 10  1  0
  4 11  1  0
  5  7  1  0
M  END
