OCO/C=C\O_4
     RDKit          3D

 12 11  0  0  0  0  0  0  0  0999 V2000
   -0.6917   -0.6714    0.6050 C   0  0  0  0  0  0  0  0  0  0  0  0
    1.2934    1.5348    1.4240 C   0  0  0  0  0  0  0  0  0  0  0  0
    0.1350    1.5107    0.7611 C   0  0  0  0  0  0  0  0  0  0  0  0
    0.2021   -1.3101    1.4726 O   0  0  0  0  0  0  0  0  0  0  0  0
    2.2002    0.5084    1.3068 O   0  0  0  0  0  0  0  0  0  0  0  0
   -0.1892    0.4544   -0.0888 O   0  0  0  0  0  0  0  0  0  0  0  0
    1.8637   -0.1159    0.6186 H   0  0  0  0  0  0  0  0  0  0  0  0
   -1.5916   -0.3723    1.1565 H   0  0  0  0  0  0  0  0  0  0  0  0
   -0.9923   -1.4077   -0.1505 H   0  0  0  0  0  0  0  0  0  0  0  0
   -0.5733    2.3213    0.8565 H   0  0  0  0  0  0  0  0  0  0  0  0
    0.5675   -0.6744    2.1293 H   0  0  0  0  0  0  0  0  0  0  0  0
    1.5457    2.3598    2.0706 H   0  0  0  0  0  0  0  0  0  0  0  0
  1  4  1  0
  1  6  1  0
  1  8  1  0
  1  9  1  0
  2  3  2  0
  2  5  1  0
  2 12  1  0
  3  6  1  0
  3 10  1  0
  4 11  1  0
  5  7  1  0
M  END
