OCO/C=C\O_13
     RDKit          3D

 12 11  0  0  0  0  0  0  0  0999 V2000
   -0.9535   -0.7476    0.3852 C   0  0  0  0  0  0  0  0  0  0  0  0
    1.5393    1.6162    1.3558 C   0  0  0  0  0  0  0  0  0  0  0  0
    0.4278    0.8837    1.2263 C   0  0  0  0  0  0  0  0  0  0  0  0
   -1.4293   -1.0704    1.6608 O   0  0  0  0  0  0  0  0  0  0  0  0
    2.6827    1.3493    0.6329 O   0  0  0  0  0  0  0  0  0  0  0  0
    0.3420   -0.1904    0.3639 O   0  0  0  0  0  0  0  0  0  0  0  0
    3.3957    1.9934    0.8468 H   0  0  0  0  0  0  0  0  0  0  0  0
   -1.6483   -0.0315   -0.0707 H   0  0  0  0  0  0  0  0  0  0  0  0
   -0.9430   -1.6509   -0.2387 H   0  0  0  0  0  0  0  0  0  0  0  0
   -0.4523    1.1157    1.8099 H   0  0  0  0  0  0  0  0  0  0  0  0
   -0.7402   -1.5758    2.1409 H   0  0  0  0  0  0  0  0  0  0  0  0
    1.5484    2.4460    2.0486 H   0  0  0  0  0  0  0  0  0  0  0  0
  1  4  1  0
  1  6  1  0
  1  8  1  0
  1  9  1  0
  2  3  2  0
  2  5  1  0
  2 12  1  0
  3  6  1  0
  3 10  1  0
  4 11  1  0
  5  7  1  0
M  END
