OCO/C=C\O_9
     RDKit          3D

 12 11  0  0  0  0  0  0  0  0999 V2000
   -0.2933   -0.8349    0.5876 C   0  0  0  0  0  0  0  0  0  0  0  0
    1.1909    1.5464    1.2182 C   0  0  0  0  0  0  0  0  0  0  0  0
   -0.1245    1.4367    1.0048 C   0  0  0  0  0  0  0  0  0  0  0  0
   -0.6536   -1.1903    1.8922 O   0  0  0  0  0  0  0  0  0  0  0  0
    2.0982    0.6872    0.6341 O   0  0  0  0  0  0  0  0  0  0  0  0
   -0.6936    0.4605    0.1993 O   0  0  0  0  0  0  0  0  0  0  0  0
    3.0193    0.9434    0.8653 H   0  0  0  0  0  0  0  0  0  0  0  0
   -0.7339   -1.5507   -0.1181 H   0  0  0  0  0  0  0  0  0  0  0  0
    0.7992   -0.9032    0.5049 H   0  0  0  0  0  0  0  0  0  0  0  0
   -0.8140    2.1346    1.4594 H   0  0  0  0  0  0  0  0  0  0  0  0
   -1.5834   -0.9235    2.0511 H   0  0  0  0  0  0  0  0  0  0  0  0
    1.5581    2.3316    1.8628 H   0  0  0  0  0  0  0  0  0  0  0  0
  1  4  1  0
  1  6  1  0
  1  8  1  0
  1  9  1  0
  2  3  2  0
  2  5  1  0
  2 12  1  0
  3  6  1  0
  3 10  1  0
  4 11  1  0
  5  7  1  0
M  END
