OCO/C=C\O_6
     RDKit          3D

 12 11  0  0  0  0  0  0  0  0999 V2000
   -0.4189   -0.9506    0.6472 C   0  0  0  0  0  0  0  0  0  0  0  0
    1.4092    2.0350    1.2940 C   0  0  0  0  0  0  0  0  0  0  0  0
    0.4689    1.0875    1.2461 C   0  0  0  0  0  0  0  0  0  0  0  0
   -1.4018   -0.7281    1.6272 O   0  0  0  0  0  0  0  0  0  0  0  0
    2.6954    1.7884    0.8789 O   0  0  0  0  0  0  0  0  0  0  0  0
    0.7595   -0.1793    0.7791 O   0  0  0  0  0  0  0  0  0  0  0  0
    2.7390    0.8444    0.6041 H   0  0  0  0  0  0  0  0  0  0  0  0
   -0.8423   -0.7330   -0.3417 H   0  0  0  0  0  0  0  0  0  0  0  0
   -0.1134   -2.0046    0.6692 H   0  0  0  0  0  0  0  0  0  0  0  0
   -0.5387    1.2877    1.5802 H   0  0  0  0  0  0  0  0  0  0  0  0
   -2.1694   -1.3329    1.5150 H   0  0  0  0  0  0  0  0  0  0  0  0
    1.1819    3.0233    1.6623 H   0  0  0  0  0  0  0  0  0  0  0  0
  1  4  1  0
  1  6  1  0
  1  8  1  0
  1  9  1  0
  2  3  2  0
  2  5  1  0
  2 12  1  0
  3  6  1  0
  3 10  1  0
  4 11  1  0
  5  7  1  0
M  END
