OCO/C=C\O_7
     RDKit          3D

 12 11  0  0  0  0  0  0  0  0999 V2000
   -0.8647   -0.6540    0.8185 C   0  0  0  0  0  0  0  0  0  0  0  0
    1.5206    1.9925    1.1055 C   0  0  0  0  0  0  0  0  0  0  0  0
    0.3885    1.2932    0.9885 C   0  0  0  0  0  0  0  0  0  0  0  0
   -0.9079   -2.0564    0.8202 O   0  0  0  0  0  0  0  0  0  0  0  0
    2.7357    1.3729    1.2711 O   0  0  0  0  0  0  0  0  0  0  0  0
    0.4173   -0.0960    1.0371 O   0  0  0  0  0  0  0  0  0  0  0  0
    2.5746    0.4020    1.2623 H   0  0  0  0  0  0  0  0  0  0  0  0
   -1.5419   -0.2821    1.5980 H   0  0  0  0  0  0  0  0  0  0  0  0
   -1.2350   -0.3116   -0.1557 H   0  0  0  0  0  0  0  0  0  0  0  0
   -0.5557    1.7998    0.8558 H   0  0  0  0  0  0  0  0  0  0  0  0
   -0.2753   -2.3936    1.4879 H   0  0  0  0  0  0  0  0  0  0  0  0
    1.5134    3.0710    1.0724 H   0  0  0  0  0  0  0  0  0  0  0  0
  1  4  1  0
  1  6  1  0
  1  8  1  0
  1  9  1  0
  2  3  2  0
  2  5  1  0
  2 12  1  0
  3  6  1  0
  3 10  1  0
  4 11  1  0
  5  7  1  0
M  END
