OCO/C=C\O_0
     RDKit          3D

 12 11  0  0  0  0  0  0  0  0999 V2000
   -0.6685   -0.5245    1.1252 C   0  0  0  0  0  0  0  0  0  0  0  0
    1.3451    1.6907    1.1553 C   0  0  0  0  0  0  0  0  0  0  0  0
    0.1972    1.5838    0.4827 C   0  0  0  0  0  0  0  0  0  0  0  0
    0.2541   -1.5669    1.2994 O   0  0  0  0  0  0  0  0  0  0  0  0
    2.0940    0.6067    1.5394 O   0  0  0  0  0  0  0  0  0  0  0  0
   -0.3538    0.3709    0.0681 O   0  0  0  0  0  0  0  0  0  0  0  0
    1.5420   -0.2032    1.4385 H   0  0  0  0  0  0  0  0  0  0  0  0
   -0.7439    0.0344    2.0655 H   0  0  0  0  0  0  0  0  0  0  0  0
   -1.6567   -0.9543    0.9181 H   0  0  0  0  0  0  0  0  0  0  0  0
   -0.3532    2.4705    0.2025 H   0  0  0  0  0  0  0  0  0  0  0  0
    0.3793   -2.0308    0.4454 H   0  0  0  0  0  0  0  0  0  0  0  0
    1.7338    2.6606    1.4217 H   0  0  0  0  0  0  0  0  0  0  0  0
  1  4  1  0
  1  6  1  0
  1  8  1  0
  1  9  1  0
  2  3  2  0
  2  5  1  0
  2 12  1  0
  3  6  1  0
  3 10  1  0
  4 11  1  0
  5  7  1  0
M  END
