OCO/C=C\O_3
     RDKit          3D

 12 11  0  0  0  0  0  0  0  0999 V2000
   -1.0002   -0.6719    0.7411 C   0  0  0  0  0  0  0  0  0  0  0  0
    1.3097    1.4076    1.2561 C   0  0  0  0  0  0  0  0  0  0  0  0
    0.0722    1.4077    0.7487 C   0  0  0  0  0  0  0  0  0  0  0  0
   -0.0650   -1.3295    1.5544 O   0  0  0  0  0  0  0  0  0  0  0  0
    2.1757    0.3429    1.0851 O   0  0  0  0  0  0  0  0  0  0  0  0
   -0.4403    0.3729   -0.0313 O   0  0  0  0  0  0  0  0  0  0  0  0
    3.1063    0.6256    1.2244 H   0  0  0  0  0  0  0  0  0  0  0  0
   -1.8018   -0.2620    1.3682 H   0  0  0  0  0  0  0  0  0  0  0  0
   -1.4393   -1.4039    0.0512 H   0  0  0  0  0  0  0  0  0  0  0  0
   -0.5861    2.2490    0.9150 H   0  0  0  0  0  0  0  0  0  0  0  0
    0.7918   -0.8596    1.4197 H   0  0  0  0  0  0  0  0  0  0  0  0
    1.6463    2.2590    1.8290 H   0  0  0  0  0  0  0  0  0  0  0  0
  1  4  1  0
  1  6  1  0
  1  8  1  0
  1  9  1  0
  2  3  2  0
  2  5  1  0
  2 12  1  0
  3  6  1  0
  3 10  1  0
  4 11  1  0
  5  7  1  0
M  END
