OCO/C=C\O_8
     RDKit          3D

 12 11  0  0  0  0  0  0  0  0999 V2000
   -0.1369   -1.0190    0.8365 C   0  0  0  0  0  0  0  0  0  0  0  0
    1.1528    1.7990    1.3018 C   0  0  0  0  0  0  0  0  0  0  0  0
    0.1292    1.2852    0.6145 C   0  0  0  0  0  0  0  0  0  0  0  0
   -1.4502   -0.9862    1.3201 O   0  0  0  0  0  0  0  0  0  0  0  0
    2.3553    1.1399    1.3956 O   0  0  0  0  0  0  0  0  0  0  0  0
    0.2385    0.0467   -0.0153 O   0  0  0  0  0  0  0  0  0  0  0  0
    2.3412    0.3951    0.7532 H   0  0  0  0  0  0  0  0  0  0  0  0
   -0.0201   -1.9499    0.2680 H   0  0  0  0  0  0  0  0  0  0  0  0
    0.5586   -1.0514    1.6847 H   0  0  0  0  0  0  0  0  0  0  0  0
   -0.8027    1.8248    0.5250 H   0  0  0  0  0  0  0  0  0  0  0  0
   -1.6593   -0.0978    1.6777 H   0  0  0  0  0  0  0  0  0  0  0  0
    1.0631    2.7514    1.7998 H   0  0  0  0  0  0  0  0  0  0  0  0
  1  4  1  0
  1  6  1  0
  1  8  1  0
  1  9  1  0
  2  3  2  0
  2  5  1  0
  2 12  1  0
  3  6  1  0
  3 10  1  0
  4 11  1  0
  5  7  1  0
M  END
