OCO/C=C\O_2
     RDKit          3D

 12 11  0  0  0  0  0  0  0  0999 V2000
   -0.8263   -0.6800    0.6672 C   0  0  0  0  0  0  0  0  0  0  0  0
    1.3101    1.4974    1.4454 C   0  0  0  0  0  0  0  0  0  0  0  0
    0.1475    1.4298    0.7899 C   0  0  0  0  0  0  0  0  0  0  0  0
   -0.1436   -1.1254    1.8124 O   0  0  0  0  0  0  0  0  0  0  0  0
    2.2757    0.5158    1.3320 O   0  0  0  0  0  0  0  0  0  0  0  0
   -0.1632    0.3530   -0.0380 O   0  0  0  0  0  0  0  0  0  0  0  0
    2.2618    0.1569    0.4169 H   0  0  0  0  0  0  0  0  0  0  0  0
   -1.8214   -0.3242    0.9625 H   0  0  0  0  0  0  0  0  0  0  0  0
   -0.9537   -1.5273   -0.0191 H   0  0  0  0  0  0  0  0  0  0  0  0
   -0.5871    2.2155    0.8911 H   0  0  0  0  0  0  0  0  0  0  0  0
    0.7458   -0.7017    1.8016 H   0  0  0  0  0  0  0  0  0  0  0  0
    1.5238    2.3280    2.0997 H   0  0  0  0  0  0  0  0  0  0  0  0
  1  4  1  0
  1  6  1  0
  1  8  1  0
  1  9  1  0
  2  3  2  0
  2  5  1  0
  2 12  1  0
  3  6  1  0
  3 10  1  0
  4 11  1  0
  5  7  1  0
M  END
