OCO/C=C\O
     RDKit          3D

 12 11  0  0  0  0  0  0  0  0999 V2000
   -0.7648   -0.7529    0.9375 C   0  0  0  0  0  0  0  0  0  0  0  0
    1.5383    2.1074    1.0683 C   0  0  0  0  0  0  0  0  0  0  0  0
    0.4124    1.4033    0.9623 C   0  0  0  0  0  0  0  0  0  0  0  0
   -0.4518   -2.1105    1.0612 O   0  0  0  0  0  0  0  0  0  0  0  0
    2.7756    1.4958    1.2689 O   0  0  0  0  0  0  0  0  0  0  0  0
    0.4277    0.0111    1.0487 O   0  0  0  0  0  0  0  0  0  0  0  0
    2.8777    0.4904    1.3433 H   0  0  0  0  0  0  0  0  0  0  0  0
   -1.4716   -0.4553    1.7443 H   0  0  0  0  0  0  0  0  0  0  0  0
   -1.2340   -0.5644   -0.0541 H   0  0  0  0  0  0  0  0  0  0  0  0
   -0.5247    1.9255    0.8068 H   0  0  0  0  0  0  0  0  0  0  0  0
   -1.3115   -2.5992    0.9772 H   0  0  0  0  0  0  0  0  0  0  0  0
    1.4961    3.1865    0.9973 H   0  0  0  0  0  0  0  0  0  0  0  0
  1  4  1  0
  1  6  1  0
  1  8  1  0
  1  9  1  0
  2  3  2  0
  2  5  1  0
  2 12  1  0
  3  6  1  0
  3 10  1  0
  4 11  1  0
  5  7  1  0
M  END
