OC(=O)C(=O)C.[H][H]_9
     RDKit          3D

 12 10  0  0  0  0  0  0  0  0999 V2000
   -0.0959    0.0487    0.9749 C   0  0  0  0  0  0  0  0  0  0  0  0
    1.0424    2.2525    1.5764 C   0  0  0  0  0  0  0  0  0  0  0  0
   -0.1938    1.4369    1.5063 C   0  0  0  0  0  0  0  0  0  0  0  0
    0.9893   -0.3648    0.6288 O   0  0  0  0  0  0  0  0  0  0  0  0
   -1.2159   -0.6963    0.8980 O   0  0  0  0  0  0  0  0  0  0  0  0
   -1.2531    1.8797    1.8646 O   0  0  0  0  0  0  0  0  0  0  0  0
   -0.9757   -1.5694    0.5324 H   0  0  0  0  0  0  0  0  0  0  0  0
   -1.2199    4.7443    1.3126 H   0  0  0  0  0  0  0  0  0  0  0  0
   -1.8217    4.2695    1.4387 H   0  0  0  0  0  0  0  0  0  0  0  0
    0.9579    3.1198    0.9200 H   0  0  0  0  0  0  0  0  0  0  0  0
    1.1990    2.6076    2.5960 H   0  0  0  0  0  0  0  0  0  0  0  0
    1.9094    1.6625    1.2701 H   0  0  0  0  0  0  0  0  0  0  0  0
  1  3  1  0
  1  4  2  0
  1  5  1  0
  2  3  1  0
  2 10  1  0
  2 11  1  0
  2 12  1  0
  3  6  2  0
  5  7  1  0
  8  9  1  0
M  END
