OC(=O)C(=O)C.[H][H]_6
     RDKit          3D

 12 10  0  0  0  0  0  0  0  0999 V2000
   -0.1141    0.0720    0.7431 C   0  0  0  0  0  0  0  0  0  0  0  0
    0.9923    2.2683    1.4263 C   0  0  0  0  0  0  0  0  0  0  0  0
   -0.2217    1.4189    1.3702 C   0  0  0  0  0  0  0  0  0  0  0  0
    0.9600   -0.2810    0.3074 O   0  0  0  0  0  0  0  0  0  0  0  0
   -1.2139   -0.7040    0.6817 O   0  0  0  0  0  0  0  0  0  0  0  0
   -1.2709    1.8024    1.8161 O   0  0  0  0  0  0  0  0  0  0  0  0
   -0.9702   -1.5426    0.2448 H   0  0  0  0  0  0  0  0  0  0  0  0
   -1.6784    4.2130    2.3234 H   0  0  0  0  0  0  0  0  0  0  0  0
   -1.0602    4.6817    2.2795 H   0  0  0  0  0  0  0  0  0  0  0  0
    1.2129    2.5381    2.4601 H   0  0  0  0  0  0  0  0  0  0  0  0
    1.8513    1.7381    1.0084 H   0  0  0  0  0  0  0  0  0  0  0  0
    0.8348    3.1860    0.8579 H   0  0  0  0  0  0  0  0  0  0  0  0
  1  3  1  0
  1  4  2  0
  1  5  1  0
  2  3  1  0
  2 10  1  0
  2 11  1  0
  2 12  1  0
  3  6  2  0
  5  7  1  0
  8  9  1  0
M  END
