OC(=O)C(=O)C.[H][H]_2
     RDKit          3D

 12 10  0  0  0  0  0  0  0  0999 V2000
   -0.3683    0.6705    0.7692 C   0  0  0  0  0  0  0  0  0  0  0  0
    1.4048    2.2216    1.7513 C   0  0  0  0  0  0  0  0  0  0  0  0
    0.2419    1.3258    1.9596 C   0  0  0  0  0  0  0  0  0  0  0  0
    0.1102    0.8888   -0.3225 O   0  0  0  0  0  0  0  0  0  0  0  0
   -1.4298   -0.1396    0.9484 O   0  0  0  0  0  0  0  0  0  0  0  0
   -0.2022    1.1285    3.0598 O   0  0  0  0  0  0  0  0  0  0  0  0
   -1.7018   -0.4819    0.0752 H   0  0  0  0  0  0  0  0  0  0  0  0
   -1.6231    3.4594    1.0295 H   0  0  0  0  0  0  0  0  0  0  0  0
   -2.2136    2.9670    1.1421 H   0  0  0  0  0  0  0  0  0  0  0  0
    2.2750    1.8360    2.2844 H   0  0  0  0  0  0  0  0  0  0  0  0
    1.6464    2.2960    0.6885 H   0  0  0  0  0  0  0  0  0  0  0  0
    1.1823    3.2189    2.1333 H   0  0  0  0  0  0  0  0  0  0  0  0
  1  3  1  0
  1  4  2  0
  1  5  1  0
  2  3  1  0
  2 10  1  0
  2 11  1  0
  2 12  1  0
  3  6  2  0
  5  7  1  0
  8  9  1  0
M  END
