OC(=O)C(=O)C.[H][H]_1
     RDKit          3D

 12 10  0  0  0  0  0  0  0  0999 V2000
   -0.4215    0.5983    1.1458 C   0  0  0  0  0  0  0  0  0  0  0  0
    1.3945    2.1240    2.0884 C   0  0  0  0  0  0  0  0  0  0  0  0
    0.5249    1.7324    0.9534 C   0  0  0  0  0  0  0  0  0  0  0  0
   -0.4337    0.0275    2.2146 O   0  0  0  0  0  0  0  0  0  0  0  0
   -1.2303    0.2494    0.1263 O   0  0  0  0  0  0  0  0  0  0  0  0
    0.5764    2.3126   -0.0989 O   0  0  0  0  0  0  0  0  0  0  0  0
   -1.7799   -0.5031    0.4183 H   0  0  0  0  0  0  0  0  0  0  0  0
   -2.1045    3.1314    1.1574 H   0  0  0  0  0  0  0  0  0  0  0  0
   -2.0564    3.0387    0.3875 H   0  0  0  0  0  0  0  0  0  0  0  0
    1.1960    3.1584    2.3727 H   0  0  0  0  0  0  0  0  0  0  0  0
    1.2126    1.4795    2.9515 H   0  0  0  0  0  0  0  0  0  0  0  0
    2.4440    2.0420    1.8018 H   0  0  0  0  0  0  0  0  0  0  0  0
  1  3  1  0
  1  4  2  0
  1  5  1  0
  2  3  1  0
  2 10  1  0
  2 11  1  0
  2 12  1  0
  3  6  2  0
  5  7  1  0
  8  9  1  0
M  END
