OC(=O)C(=O)C.[H][H]_12
     RDKit          3D

 12 10  0  0  0  0  0  0  0  0999 V2000
   -0.4877    1.1280    1.2834 C   0  0  0  0  0  0  0  0  0  0  0  0
    1.7634    2.0263    2.0836 C   0  0  0  0  0  0  0  0  0  0  0  0
    0.9309    0.8746    1.6610 C   0  0  0  0  0  0  0  0  0  0  0  0
   -0.9075    2.2634    1.3357 O   0  0  0  0  0  0  0  0  0  0  0  0
   -1.2511    0.0870    0.8975 O   0  0  0  0  0  0  0  0  0  0  0  0
    1.3835   -0.2391    1.6223 O   0  0  0  0  0  0  0  0  0  0  0  0
   -2.1430    0.4242    0.6874 H   0  0  0  0  0  0  0  0  0  0  0  0
   -3.1916    2.6778   -0.4739 H   0  0  0  0  0  0  0  0  0  0  0  0
   -2.7105    3.1969   -0.1537 H   0  0  0  0  0  0  0  0  0  0  0  0
    2.1239    1.8742    3.1020 H   0  0  0  0  0  0  0  0  0  0  0  0
    2.6273    2.1256    1.4249 H   0  0  0  0  0  0  0  0  0  0  0  0
    1.1842    2.9520    2.0487 H   0  0  0  0  0  0  0  0  0  0  0  0
  1  3  1  0
  1  4  2  0
  1  5  1  0
  2  3  1  0
  2 10  1  0
  2 11  1  0
  2 12  1  0
  3  6  2  0
  5  7  1  0
  8  9  1  0
M  END
