OC(=O)C(=O)C.[H][H]_7
     RDKit          3D

 12 10  0  0  0  0  0  0  0  0999 V2000
   -0.0817    0.0242    0.9825 C   0  0  0  0  0  0  0  0  0  0  0  0
    1.0028    2.2558    1.5811 C   0  0  0  0  0  0  0  0  0  0  0  0
   -0.2236    1.4345    1.4407 C   0  0  0  0  0  0  0  0  0  0  0  0
    1.0290   -0.4017    0.7511 O   0  0  0  0  0  0  0  0  0  0  0  0
   -1.1917   -0.7262    0.8415 O   0  0  0  0  0  0  0  0  0  0  0  0
   -1.3093    1.8899    1.6863 O   0  0  0  0  0  0  0  0  0  0  0  0
   -0.9219   -1.6141    0.5373 H   0  0  0  0  0  0  0  0  0  0  0  0
   -1.7693    4.3292    1.4587 H   0  0  0  0  0  0  0  0  0  0  0  0
   -1.1522    4.7955    1.3866 H   0  0  0  0  0  0  0  0  0  0  0  0
    0.9723    3.0976    0.8881 H   0  0  0  0  0  0  0  0  0  0  0  0
    1.0757    2.6490    2.5960 H   0  0  0  0  0  0  0  0  0  0  0  0
    1.8919    1.6574    1.3690 H   0  0  0  0  0  0  0  0  0  0  0  0
  1  3  1  0
  1  4  2  0
  1  5  1  0
  2  3  1  0
  2 10  1  0
  2 11  1  0
  2 12  1  0
  3  6  2  0
  5  7  1  0
  8  9  1  0
M  END
