OC(=O)C(=O)C.[H][H]_0
     RDKit          3D

 12 10  0  0  0  0  0  0  0  0999 V2000
   -0.3346    0.5753    0.9504 C   0  0  0  0  0  0  0  0  0  0  0  0
    1.4160    2.2070    1.8379 C   0  0  0  0  0  0  0  0  0  0  0  0
    0.3919    1.8693    0.8205 C   0  0  0  0  0  0  0  0  0  0  0  0
   -0.0506   -0.1598    1.8710 O   0  0  0  0  0  0  0  0  0  0  0  0
   -1.2811    0.2696    0.0416 O   0  0  0  0  0  0  0  0  0  0  0  0
    0.1475    2.6179   -0.0886 O   0  0  0  0  0  0  0  0  0  0  0  0
   -1.6529   -0.6034    0.2722 H   0  0  0  0  0  0  0  0  0  0  0  0
   -2.0561    2.8245    2.1325 H   0  0  0  0  0  0  0  0  0  0  0  0
   -2.2903    2.9015    1.3957 H   0  0  0  0  0  0  0  0  0  0  0  0
    1.5007    1.4072    2.5773 H   0  0  0  0  0  0  0  0  0  0  0  0
    2.3861    2.3496    1.3598 H   0  0  0  0  0  0  0  0  0  0  0  0
    1.1455    3.1322    2.3487 H   0  0  0  0  0  0  0  0  0  0  0  0
  1  3  1  0
  1  4  2  0
  1  5  1  0
  2  3  1  0
  2 10  1  0
  2 11  1  0
  2 12  1  0
  3  6  2  0
  5  7  1  0
  8  9  1  0
M  END
