OC(=O)C(=O)C.[H][H]_14
     RDKit          3D

 12 10  0  0  0  0  0  0  0  0999 V2000
   -0.2811   -0.0852    0.9517 C   0  0  0  0  0  0  0  0  0  0  0  0
    0.2217    2.2969    1.7170 C   0  0  0  0  0  0  0  0  0  0  0  0
    0.1110    0.8541    2.0394 C   0  0  0  0  0  0  0  0  0  0  0  0
   -0.4931    0.3635   -0.1538 O   0  0  0  0  0  0  0  0  0  0  0  0
   -0.3843   -1.3983    1.2351 O   0  0  0  0  0  0  0  0  0  0  0  0
    0.3299    0.4461    3.1495 O   0  0  0  0  0  0  0  0  0  0  0  0
   -0.6461   -1.8658    0.4187 H   0  0  0  0  0  0  0  0  0  0  0  0
   -0.3523    5.3187    0.3034 H   0  0  0  0  0  0  0  0  0  0  0  0
    0.0641    5.4659    0.9426 H   0  0  0  0  0  0  0  0  0  0  0  0
   -0.0071    2.4728    0.6633 H   0  0  0  0  0  0  0  0  0  0  0  0
   -0.4739    2.8720    2.3299 H   0  0  0  0  0  0  0  0  0  0  0  0
    1.2332    2.6502    1.9222 H   0  0  0  0  0  0  0  0  0  0  0  0
  1  3  1  0
  1  4  2  0
  1  5  1  0
  2  3  1  0
  2 10  1  0
  2 11  1  0
  2 12  1  0
  3  6  2  0
  5  7  1  0
  8  9  1  0
M  END
