OC(=O)C(=O)C.[H][H]_18
     RDKit          3D

 12 10  0  0  0  0  0  0  0  0999 V2000
   -0.4127   -0.1225    0.9940 C   0  0  0  0  0  0  0  0  0  0  0  0
    0.1877    2.2739    1.6351 C   0  0  0  0  0  0  0  0  0  0  0  0
    0.5199    0.8293    1.6600 C   0  0  0  0  0  0  0  0  0  0  0  0
   -1.4075    0.3178    0.4602 O   0  0  0  0  0  0  0  0  0  0  0  0
   -0.1169   -1.4369    1.0084 O   0  0  0  0  0  0  0  0  0  0  0  0
    1.5161    0.4294    2.2026 O   0  0  0  0  0  0  0  0  0  0  0  0
   -0.8243   -1.9129    0.5323 H   0  0  0  0  0  0  0  0  0  0  0  0
    0.1188    5.6623    1.1904 H   0  0  0  0  0  0  0  0  0  0  0  0
   -0.5781    5.4231    0.9437 H   0  0  0  0  0  0  0  0  0  0  0  0
    0.0903    2.6535    2.6532 H   0  0  0  0  0  0  0  0  0  0  0  0
    0.9807    2.8315    1.1350 H   0  0  0  0  0  0  0  0  0  0  0  0
   -0.7520    2.4425    1.1039 H   0  0  0  0  0  0  0  0  0  0  0  0
  1  3  1  0
  1  4  2  0
  1  5  1  0
  2  3  1  0
  2 10  1  0
  2 11  1  0
  2 12  1  0
  3  6  2  0
  5  7  1  0
  8  9  1  0
M  END
