OC(=O)C(=O)C.[H][H]_16
     RDKit          3D

 12 10  0  0  0  0  0  0  0  0999 V2000
   -0.2537   -0.1376    0.9315 C   0  0  0  0  0  0  0  0  0  0  0  0
    0.0718    2.3003    1.6131 C   0  0  0  0  0  0  0  0  0  0  0  0
    0.0184    0.8689    1.9954 C   0  0  0  0  0  0  0  0  0  0  0  0
   -0.4204    0.2497   -0.2045 O   0  0  0  0  0  0  0  0  0  0  0  0
   -0.3050   -1.4407    1.2699 O   0  0  0  0  0  0  0  0  0  0  0  0
    0.1903    0.5225    3.1343 O   0  0  0  0  0  0  0  0  0  0  0  0
   -0.4909   -1.9575    0.4624 H   0  0  0  0  0  0  0  0  0  0  0  0
    0.4944    5.4550    0.7606 H   0  0  0  0  0  0  0  0  0  0  0  0
   -0.2414    5.5332    0.9977 H   0  0  0  0  0  0  0  0  0  0  0  0
   -0.1036    2.4182    0.5413 H   0  0  0  0  0  0  0  0  0  0  0  0
   -0.6876    2.8620    2.1588 H   0  0  0  0  0  0  0  0  0  0  0  0
    1.0497    2.7171    1.8585 H   0  0  0  0  0  0  0  0  0  0  0  0
  1  3  1  0
  1  4  2  0
  1  5  1  0
  2  3  1  0
  2 10  1  0
  2 11  1  0
  2 12  1  0
  3  6  2  0
  5  7  1  0
  8  9  1  0
M  END
