OC(=O)C(=O)C.[H][H]_5
     RDKit          3D

 12 10  0  0  0  0  0  0  0  0999 V2000
   -0.1149    0.0474    0.7813 C   0  0  0  0  0  0  0  0  0  0  0  0
    0.9622    2.2825    1.3804 C   0  0  0  0  0  0  0  0  0  0  0  0
   -0.2592    1.4506    1.2602 C   0  0  0  0  0  0  0  0  0  0  0  0
    0.9927   -0.3615    0.5087 O   0  0  0  0  0  0  0  0  0  0  0  0
   -1.2195   -0.7158    0.6684 O   0  0  0  0  0  0  0  0  0  0  0  0
   -1.3426    1.8913    1.5406 O   0  0  0  0  0  0  0  0  0  0  0  0
   -0.9487   -1.5964    0.3448 H   0  0  0  0  0  0  0  0  0  0  0  0
   -0.9547    4.6596    2.4264 H   0  0  0  0  0  0  0  0  0  0  0  0
   -1.6073    4.2416    2.3715 H   0  0  0  0  0  0  0  0  0  0  0  0
    1.0897    2.6141    2.4118 H   0  0  0  0  0  0  0  0  0  0  0  0
    1.8453    1.7132    1.0810 H   0  0  0  0  0  0  0  0  0  0  0  0
    0.8790    3.1645    0.7438 H   0  0  0  0  0  0  0  0  0  0  0  0
  1  3  1  0
  1  4  2  0
  1  5  1  0
  2  3  1  0
  2 10  1  0
  2 11  1  0
  2 12  1  0
  3  6  2  0
  5  7  1  0
  8  9  1  0
M  END
