OC(=O)C(=O)C.[H][H]_8
     RDKit          3D

 12 10  0  0  0  0  0  0  0  0999 V2000
   -0.1416    0.1363    0.9355 C   0  0  0  0  0  0  0  0  0  0  0  0
    1.1503    2.2527    1.5403 C   0  0  0  0  0  0  0  0  0  0  0  0
   -0.0305    1.6214    0.9037 C   0  0  0  0  0  0  0  0  0  0  0  0
    0.7403   -0.5002    1.4698 O   0  0  0  0  0  0  0  0  0  0  0  0
   -1.2172   -0.4455    0.3697 O   0  0  0  0  0  0  0  0  0  0  0  0
   -0.8824    2.2859    0.3752 O   0  0  0  0  0  0  0  0  0  0  0  0
   -1.1321   -1.4122    0.4783 H   0  0  0  0  0  0  0  0  0  0  0  0
   -1.9678    3.9744    1.8698 H   0  0  0  0  0  0  0  0  0  0  0  0
   -1.5464    4.2273    2.4715 H   0  0  0  0  0  0  0  0  0  0  0  0
    1.8332    1.4907    1.9230 H   0  0  0  0  0  0  0  0  0  0  0  0
    1.6812    2.8702    0.8144 H   0  0  0  0  0  0  0  0  0  0  0  0
    0.8352    2.8900    2.3677 H   0  0  0  0  0  0  0  0  0  0  0  0
  1  3  1  0
  1  4  2  0
  1  5  1  0
  2  3  1  0
  2 10  1  0
  2 11  1  0
  2 12  1  0
  3  6  2  0
  5  7  1  0
  8  9  1  0
M  END
