OC(=O)C(=O)C.[H][H]_13
     RDKit          3D

 12 10  0  0  0  0  0  0  0  0999 V2000
   -0.4739    1.1485    1.2771 C   0  0  0  0  0  0  0  0  0  0  0  0
    1.7214    2.0838    2.1826 C   0  0  0  0  0  0  0  0  0  0  0  0
    0.7099    1.0000    2.1690 C   0  0  0  0  0  0  0  0  0  0  0  0
   -0.5663    2.1478    0.5981 O   0  0  0  0  0  0  0  0  0  0  0  0
   -1.3977    0.1678    1.2580 O   0  0  0  0  0  0  0  0  0  0  0  0
    0.8363    0.0225    2.8585 O   0  0  0  0  0  0  0  0  0  0  0  0
   -2.0987    0.4214    0.6273 H   0  0  0  0  0  0  0  0  0  0  0  0
   -2.3772    2.9063   -0.9636 H   0  0  0  0  0  0  0  0  0  0  0  0
   -2.9754    2.4190   -1.0540 H   0  0  0  0  0  0  0  0  0  0  0  0
    1.4332    2.8865    1.4997 H   0  0  0  0  0  0  0  0  0  0  0  0
    1.8171    2.4942    3.1889 H   0  0  0  0  0  0  0  0  0  0  0  0
    2.6932    1.6931    1.8773 H   0  0  0  0  0  0  0  0  0  0  0  0
  1  3  1  0
  1  4  2  0
  1  5  1  0
  2  3  1  0
  2 10  1  0
  2 11  1  0
  2 12  1  0
  3  6  2  0
  5  7  1  0
  8  9  1  0
M  END
