OC(=O)C(=O)C.[H][H]_19
     RDKit          3D

 12 10  0  0  0  0  0  0  0  0999 V2000
   -0.0079   -0.2573    0.9253 C   0  0  0  0  0  0  0  0  0  0  0  0
    0.1995    2.2721    1.1965 C   0  0  0  0  0  0  0  0  0  0  0  0
   -0.4941    1.0083    1.5425 C   0  0  0  0  0  0  0  0  0  0  0  0
    0.9338   -0.2073    0.1644 O   0  0  0  0  0  0  0  0  0  0  0  0
   -0.6317   -1.4108    1.2345 O   0  0  0  0  0  0  0  0  0  0  0  0
   -1.4267    0.9986    2.3020 O   0  0  0  0  0  0  0  0  0  0  0  0
   -0.1910   -2.1343    0.7488 H   0  0  0  0  0  0  0  0  0  0  0  0
    0.2116    5.5071    1.8520 H   0  0  0  0  0  0  0  0  0  0  0  0
   -0.3925    5.8271    2.2209 H   0  0  0  0  0  0  0  0  0  0  0  0
    1.0183    2.0822    0.4986 H   0  0  0  0  0  0  0  0  0  0  0  0
   -0.5015    2.9697    0.7361 H   0  0  0  0  0  0  0  0  0  0  0  0
    0.6043    2.7355    2.0973 H   0  0  0  0  0  0  0  0  0  0  0  0
  1  3  1  0
  1  4  2  0
  1  5  1  0
  2  3  1  0
  2 10  1  0
  2 11  1  0
  2 12  1  0
  3  6  2  0
  5  7  1  0
  8  9  1  0
M  END
