OC(=O)C(=O)C.[H][H]
     RDKit          3D

 12 10  0  0  0  0  0  0  0  0999 V2000
   -0.3262    0.5844    0.8287 C   0  0  0  0  0  0  0  0  0  0  0  0
    1.3338    2.2857    1.8331 C   0  0  0  0  0  0  0  0  0  0  0  0
    0.2264    1.2916    1.9926 C   0  0  0  0  0  0  0  0  0  0  0  0
    0.1280    0.8052   -0.3261 O   0  0  0  0  0  0  0  0  0  0  0  0
   -1.3582   -0.3332    1.0016 O   0  0  0  0  0  0  0  0  0  0  0  0
   -0.2393    1.0585    3.1399 O   0  0  0  0  0  0  0  0  0  0  0  0
   -1.7513   -0.8284    0.2101 H   0  0  0  0  0  0  0  0  0  0  0  0
   -1.6721    3.4467    0.3916 H   0  0  0  0  0  0  0  0  0  0  0  0
   -1.8636    3.4670    1.0728 H   0  0  0  0  0  0  0  0  0  0  0  0
    2.2248    1.7869    1.3976 H   0  0  0  0  0  0  0  0  0  0  0  0
    1.0071    3.1062    1.1604 H   0  0  0  0  0  0  0  0  0  0  0  0
    1.6126    2.7204    2.8166 H   0  0  0  0  0  0  0  0  0  0  0  0
  1  3  1  0
  1  4  2  0
  1  5  1  0
  2  3  1  0
  2 10  1  0
  2 11  1  0
  2 12  1  0
  3  6  2  0
  5  7  1  0
  8  9  1  0
M  END
