OC(=O)C(=O)C.[H][H]_17
     RDKit          3D

 12 10  0  0  0  0  0  0  0  0999 V2000
   -0.4005   -0.0301    1.0134 C   0  0  0  0  0  0  0  0  0  0  0  0
    0.1664    2.3046    1.8741 C   0  0  0  0  0  0  0  0  0  0  0  0
    0.3981    0.8410    1.9202 C   0  0  0  0  0  0  0  0  0  0  0  0
   -1.2114    0.4881    0.2770 O   0  0  0  0  0  0  0  0  0  0  0  0
   -0.1930   -1.3610    1.0442 O   0  0  0  0  0  0  0  0  0  0  0  0
    1.2101    0.3630    2.6679 O   0  0  0  0  0  0  0  0  0  0  0  0
   -0.7921   -1.7772    0.3950 H   0  0  0  0  0  0  0  0  0  0  0  0
   -0.1351    5.1353    0.0024 H   0  0  0  0  0  0  0  0  0  0  0  0
   -0.0505    5.3942    0.7300 H   0  0  0  0  0  0  0  0  0  0  0  0
   -0.6183    2.5457    1.1532 H   0  0  0  0  0  0  0  0  0  0  0  0
   -0.1348    2.6675    2.8578 H   0  0  0  0  0  0  0  0  0  0  0  0
    1.0831    2.8199    1.5838 H   0  0  0  0  0  0  0  0  0  0  0  0
  1  3  1  0
  1  4  2  0
  1  5  1  0
  2  3  1  0
  2 10  1  0
  2 11  1  0
  2 12  1  0
  3  6  2  0
  5  7  1  0
  8  9  1  0
M  END
