CC(O)O.[C-]#[O+]_0
     RDKit          3D

 12 10  0  0  0  0  0  0  0  0999 V2000
    1.3858   -0.7389    0.5926 C   0  0  0  0  0  0  0  0  0  0  0  0
    0.6756    0.4941    0.0255 C   0  0  0  0  0  0  0  0  0  0  0  0
   -0.1457    1.1140    1.0977 C   0  0  0  0  0  0  0  0  0  0  0  0
    0.4349   -1.6975    0.9999 O   0  0  0  0  0  0  0  0  0  0  0  0
    2.2653   -0.3549    1.6258 O   0  0  0  0  0  0  0  0  0  0  0  0
   -0.2175    0.6922    2.2118 O   0  0  0  0  0  0  0  0  0  0  0  0
    1.7320    0.0288    2.3541 H   0  0  0  0  0  0  0  0  0  0  0  0
   -0.0950   -1.3113    1.7294 H   0  0  0  0  0  0  0  0  0  0  0  0
    2.0083   -1.2298   -0.1750 H   0  0  0  0  0  0  0  0  0  0  0  0
   -0.7253    2.0034    0.8830 H   0  0  0  0  0  0  0  0  0  0  0  0
    0.0410    0.1993   -0.8167 H   0  0  0  0  0  0  0  0  0  0  0  0
    1.4174    1.2086   -0.3460 H   0  0  0  0  0  0  0  0  0  0  0  0
  1  2  1  0
  1  4  1  0
  1  5  1  0
  1  9  1  0
  2 10  1  0
  2 11  1  0
  2 12  1  0
  3  6  3  0
  4  8  1  0
  5  7  1  0
M  END
