CC(O)O.[C-]#[O+]_3
     RDKit          3D

 12 10  0  0  0  0  0  0  0  0999 V2000
    1.3040   -0.6587    0.7055 C   0  0  0  0  0  0  0  0  0  0  0  0
    0.1632    0.3001    0.3484 C   0  0  0  0  0  0  0  0  0  0  0  0
    0.3453    1.6248    0.9965 C   0  0  0  0  0  0  0  0  0  0  0  0
    1.1885   -1.8856    0.0054 O   0  0  0  0  0  0  0  0  0  0  0  0
    1.3903   -0.8318    2.1077 O   0  0  0  0  0  0  0  0  0  0  0  0
    0.6771    1.7752    2.1335 O   0  0  0  0  0  0  0  0  0  0  0  0
    1.2883    0.0443    2.5358 H   0  0  0  0  0  0  0  0  0  0  0  0
    0.7122   -2.5215    0.5753 H   0  0  0  0  0  0  0  0  0  0  0  0
    2.2645   -0.2210    0.3796 H   0  0  0  0  0  0  0  0  0  0  0  0
    0.1295    2.5320    0.4442 H   0  0  0  0  0  0  0  0  0  0  0  0
   -0.7757   -0.1445    0.6904 H   0  0  0  0  0  0  0  0  0  0  0  0
    0.0897    0.3947   -0.7401 H   0  0  0  0  0  0  0  0  0  0  0  0
  1  2  1  0
  1  4  1  0
  1  5  1  0
  1  9  1  0
  2 10  1  0
  2 11  1  0
  2 12  1  0
  3  6  3  0
  4  8  1  0
  5  7  1  0
M  END
