CC(O)O.[C-]#[O+]_6
     RDKit          3D

 12 10  0  0  0  0  0  0  0  0999 V2000
    1.0484   -0.6575    0.7345 C   0  0  0  0  0  0  0  0  0  0  0  0
    0.9227    0.8673    0.7659 C   0  0  0  0  0  0  0  0  0  0  0  0
   -0.4725    1.2922    0.4985 C   0  0  0  0  0  0  0  0  0  0  0  0
    0.2884   -1.2460    1.7709 O   0  0  0  0  0  0  0  0  0  0  0  0
    2.3981   -1.0713    0.7453 O   0  0  0  0  0  0  0  0  0  0  0  0
   -0.9749    1.2576   -0.5840 O   0  0  0  0  0  0  0  0  0  0  0  0
    2.7787   -0.8988    1.6302 H   0  0  0  0  0  0  0  0  0  0  0  0
    0.4373   -2.2132    1.7771 H   0  0  0  0  0  0  0  0  0  0  0  0
    0.6281   -1.0204   -0.2211 H   0  0  0  0  0  0  0  0  0  0  0  0
   -1.1264    1.5614    1.3205 H   0  0  0  0  0  0  0  0  0  0  0  0
    1.5818    1.3015    0.0071 H   0  0  0  0  0  0  0  0  0  0  0  0
    1.2672    1.2351    1.7370 H   0  0  0  0  0  0  0  0  0  0  0  0
  1  2  1  0
  1  4  1  0
  1  5  1  0
  1  9  1  0
  2 10  1  0
  2 11  1  0
  2 12  1  0
  3  6  3  0
  4  8  1  0
  5  7  1  0
M  END
