CC(O)O.[C-]#[O+]_4
     RDKit          3D

 12 10  0  0  0  0  0  0  0  0999 V2000
    1.2416   -0.5794    0.7375 C   0  0  0  0  0  0  0  0  0  0  0  0
    0.1243    0.4167    0.4124 C   0  0  0  0  0  0  0  0  0  0  0  0
    0.3744    1.7666    0.9691 C   0  0  0  0  0  0  0  0  0  0  0  0
    0.9936   -1.8255    0.1163 O   0  0  0  0  0  0  0  0  0  0  0  0
    1.4523   -0.6939    2.1290 O   0  0  0  0  0  0  0  0  0  0  0  0
   -0.2553    2.7396    0.6789 O   0  0  0  0  0  0  0  0  0  0  0  0
    0.6887   -1.1538    2.5320 H   0  0  0  0  0  0  0  0  0  0  0  0
    1.6533   -2.4800    0.4230 H   0  0  0  0  0  0  0  0  0  0  0  0
    2.1909   -0.1955    0.3255 H   0  0  0  0  0  0  0  0  0  0  0  0
    1.1375    1.8933    1.7284 H   0  0  0  0  0  0  0  0  0  0  0  0
   -0.8219    0.0314    0.8025 H   0  0  0  0  0  0  0  0  0  0  0  0
   -0.0025    0.4886   -0.6726 H   0  0  0  0  0  0  0  0  0  0  0  0
  1  2  1  0
  1  4  1  0
  1  5  1  0
  1  9  1  0
  2 10  1  0
  2 11  1  0
  2 12  1  0
  3  6  3  0
  4  8  1  0
  5  7  1  0
M  END
