CC(O)O.[C-]#[O+]_5
     RDKit          3D

 12 10  0  0  0  0  0  0  0  0999 V2000
    1.0158   -0.6959    0.6852 C   0  0  0  0  0  0  0  0  0  0  0  0
    0.9437    0.8339    0.7200 C   0  0  0  0  0  0  0  0  0  0  0  0
   -0.4417    1.3431    0.5913 C   0  0  0  0  0  0  0  0  0  0  0  0
    0.2386   -1.2625    1.7222 O   0  0  0  0  0  0  0  0  0  0  0  0
    2.3523   -1.1516    0.6914 O   0  0  0  0  0  0  0  0  0  0  0  0
   -0.7242    2.4440    0.2224 O   0  0  0  0  0  0  0  0  0  0  0  0
    2.7446   -0.9840    1.5721 H   0  0  0  0  0  0  0  0  0  0  0  0
    0.3960   -2.2276    1.7572 H   0  0  0  0  0  0  0  0  0  0  0  0
    0.5839   -1.0493   -0.2672 H   0  0  0  0  0  0  0  0  0  0  0  0
   -1.2645    0.7135    0.9102 H   0  0  0  0  0  0  0  0  0  0  0  0
    1.5585    1.2532   -0.0828 H   0  0  0  0  0  0  0  0  0  0  0  0
    1.3738    1.1912    1.6601 H   0  0  0  0  0  0  0  0  0  0  0  0
  1  2  1  0
  1  4  1  0
  1  5  1  0
  1  9  1  0
  2 10  1  0
  2 11  1  0
  2 12  1  0
  3  6  3  0
  4  8  1  0
  5  7  1  0
M  END
