CC(O)O.[C-]#[O+]_8
     RDKit          3D

 12 10  0  0  0  0  0  0  0  0999 V2000
    1.3478   -0.7372    0.7544 C   0  0  0  0  0  0  0  0  0  0  0  0
    0.6530    0.4718    0.1165 C   0  0  0  0  0  0  0  0  0  0  0  0
   -0.0862    1.2369    1.1517 C   0  0  0  0  0  0  0  0  0  0  0  0
    0.4019   -1.6387    1.3008 O   0  0  0  0  0  0  0  0  0  0  0  0
    2.2941   -0.2947    1.7017 O   0  0  0  0  0  0  0  0  0  0  0  0
    0.3594    1.5115    2.2236 O   0  0  0  0  0  0  0  0  0  0  0  0
    1.8086    0.2155    2.3812 H   0  0  0  0  0  0  0  0  0  0  0  0
   -0.2417   -1.9418    0.6239 H   0  0  0  0  0  0  0  0  0  0  0  0
    1.9324   -1.2973    0.0036 H   0  0  0  0  0  0  0  0  0  0  0  0
   -1.0818    1.6119    0.9433 H   0  0  0  0  0  0  0  0  0  0  0  0
   -0.0189    0.1466   -0.6843 H   0  0  0  0  0  0  0  0  0  0  0  0
    1.4083    1.1234   -0.3344 H   0  0  0  0  0  0  0  0  0  0  0  0
  1  2  1  0
  1  4  1  0
  1  5  1  0
  1  9  1  0
  2 10  1  0
  2 11  1  0
  2 12  1  0
  3  6  3  0
  4  8  1  0
  5  7  1  0
M  END
