O=CC(=O)C.O_0
     RDKit          3D

 12 10  0  0  0  0  0  0  0  0999 V2000
   -1.5379    0.6784    2.5189 C   0  0  0  0  0  0  0  0  0  0  0  0
    0.4688    0.0293    1.0958 C   0  0  0  0  0  0  0  0  0  0  0  0
   -0.0859    0.7204    2.2889 C   0  0  0  0  0  0  0  0  0  0  0  0
   -2.3185    0.1169    1.8021 O   0  0  0  0  0  0  0  0  0  0  0  0
   -1.6330   -1.3269   -0.5880 O   0  0  0  0  0  0  0  0  0  0  0  0
    0.6333    1.3073    3.0598 O   0  0  0  0  0  0  0  0  0  0  0  0
   -1.9393   -0.8531    0.2130 H   0  0  0  0  0  0  0  0  0  0  0  0
   -2.4348   -1.6920   -0.9937 H   0  0  0  0  0  0  0  0  0  0  0  0
   -1.9392    1.1834    3.3882 H   0  0  0  0  0  0  0  0  0  0  0  0
    0.2422   -1.0384    1.1237 H   0  0  0  0  0  0  0  0  0  0  0  0
    1.5526    0.1533    1.0668 H   0  0  0  0  0  0  0  0  0  0  0  0
    0.0477    0.4409    0.1764 H   0  0  0  0  0  0  0  0  0  0  0  0
  1  3  1  0
  1  4  2  0
  1  9  1  0
  2  3  1  0
  2 10  1  0
  2 11  1  0
  2 12  1  0
  3  6  2  0
  5  7  1  0
  5  8  1  0
M  END
