O=CC(=O)C.O_9
     RDKit          3D

 12 10  0  0  0  0  0  0  0  0999 V2000
   -1.5047    0.6700    2.0111 C   0  0  0  0  0  0  0  0  0  0  0  0
    0.9334    0.9405    1.2822 C   0  0  0  0  0  0  0  0  0  0  0  0
   -0.3432    0.1782    1.2549 C   0  0  0  0  0  0  0  0  0  0  0  0
   -2.5627    0.1113    2.0366 O   0  0  0  0  0  0  0  0  0  0  0  0
   -2.7717   -2.3710    0.4557 O   0  0  0  0  0  0  0  0  0  0  0  0
   -0.4327   -0.8258    0.5970 O   0  0  0  0  0  0  0  0  0  0  0  0
   -1.8688   -2.3981    0.0892 H   0  0  0  0  0  0  0  0  0  0  0  0
   -2.7669   -1.5565    0.9990 H   0  0  0  0  0  0  0  0  0  0  0  0
   -1.4281    1.5862    2.5813 H   0  0  0  0  0  0  0  0  0  0  0  0
    1.7732    0.2456    1.2306 H   0  0  0  0  0  0  0  0  0  0  0  0
    1.0318    1.5320    2.1936 H   0  0  0  0  0  0  0  0  0  0  0  0
    0.9963    1.6070    0.4207 H   0  0  0  0  0  0  0  0  0  0  0  0
  1  3  1  0
  1  4  2  0
  1  9  1  0
  2  3  1  0
  2 10  1  0
  2 11  1  0
  2 12  1  0
  3  6  2  0
  5  7  1  0
  5  8  1  0
M  END
