O=CC(=O)C.O_3
     RDKit          3D

 12 10  0  0  0  0  0  0  0  0999 V2000
   -1.4585    0.4882    2.0537 C   0  0  0  0  0  0  0  0  0  0  0  0
    0.9849    0.9257    1.5503 C   0  0  0  0  0  0  0  0  0  0  0  0
   -0.2575    0.1671    1.2652 C   0  0  0  0  0  0  0  0  0  0  0  0
   -1.4748    1.3293    2.9083 O   0  0  0  0  0  0  0  0  0  0  0  0
   -2.9503   -1.8134    0.3113 O   0  0  0  0  0  0  0  0  0  0  0  0
   -0.2866   -0.6877    0.4146 O   0  0  0  0  0  0  0  0  0  0  0  0
   -2.0272   -1.4865    0.2823 H   0  0  0  0  0  0  0  0  0  0  0  0
   -3.0018   -2.5069   -0.3657 H   0  0  0  0  0  0  0  0  0  0  0  0
   -2.3811   -0.0490    1.8688 H   0  0  0  0  0  0  0  0  0  0  0  0
    1.7784    0.2446    1.8607 H   0  0  0  0  0  0  0  0  0  0  0  0
    0.8140    1.6539    2.3467 H   0  0  0  0  0  0  0  0  0  0  0  0
    1.3162    1.4542    0.6554 H   0  0  0  0  0  0  0  0  0  0  0  0
  1  3  1  0
  1  4  2  0
  1  9  1  0
  2  3  1  0
  2 10  1  0
  2 11  1  0
  2 12  1  0
  3  6  2  0
  5  7  1  0
  5  8  1  0
M  END
