O=CC(=O)C.O_4
     RDKit          3D

 12 10  0  0  0  0  0  0  0  0999 V2000
   -1.5332    0.6730    1.7886 C   0  0  0  0  0  0  0  0  0  0  0  0
    0.9552    0.9951    1.4862 C   0  0  0  0  0  0  0  0  0  0  0  0
   -0.2550    0.1630    1.2697 C   0  0  0  0  0  0  0  0  0  0  0  0
   -1.6374    1.7162    2.3710 O   0  0  0  0  0  0  0  0  0  0  0  0
   -2.8563   -2.0370    0.5795 O   0  0  0  0  0  0  0  0  0  0  0  0
   -0.2003   -0.8942    0.6902 O   0  0  0  0  0  0  0  0  0  0  0  0
   -1.9293   -1.7199    0.5738 H   0  0  0  0  0  0  0  0  0  0  0  0
   -2.8415   -2.8917    0.1196 H   0  0  0  0  0  0  0  0  0  0  0  0
   -2.4375    0.0928    1.6485 H   0  0  0  0  0  0  0  0  0  0  0  0
    0.8337    1.9742    1.0196 H   0  0  0  0  0  0  0  0  0  0  0  0
    1.8275    0.5039    1.0518 H   0  0  0  0  0  0  0  0  0  0  0  0
    1.1301    1.1439    2.5532 H   0  0  0  0  0  0  0  0  0  0  0  0
  1  3  1  0
  1  4  2  0
  1  9  1  0
  2  3  1  0
  2 10  1  0
  2 11  1  0
  2 12  1  0
  3  6  2  0
  5  7  1  0
  5  8  1  0
M  END
