O=CC(=O)C.O_5
     RDKit          3D

 12 10  0  0  0  0  0  0  0  0999 V2000
   -1.2352    0.1334    1.8652 C   0  0  0  0  0  0  0  0  0  0  0  0
    1.0740    1.0284    1.3292 C   0  0  0  0  0  0  0  0  0  0  0  0
   -0.1099    1.0095    2.2229 C   0  0  0  0  0  0  0  0  0  0  0  0
   -1.2382   -0.5640    0.8896 O   0  0  0  0  0  0  0  0  0  0  0  0
   -3.4483   -2.3091    0.1198 O   0  0  0  0  0  0  0  0  0  0  0  0
   -0.1527    1.6917    3.2160 O   0  0  0  0  0  0  0  0  0  0  0  0
   -2.7069   -1.7225    0.3782 H   0  0  0  0  0  0  0  0  0  0  0  0
   -3.1503   -2.7635   -0.6860 H   0  0  0  0  0  0  0  0  0  0  0  0
   -2.1077    0.1092    2.5061 H   0  0  0  0  0  0  0  0  0  0  0  0
    1.2396    2.0366    0.9468 H   0  0  0  0  0  0  0  0  0  0  0  0
    0.9273    0.3505    0.4852 H   0  0  0  0  0  0  0  0  0  0  0  0
    1.9642    0.7192    1.8788 H   0  0  0  0  0  0  0  0  0  0  0  0
  1  3  1  0
  1  4  2  0
  1  9  1  0
  2  3  1  0
  2 10  1  0
  2 11  1  0
  2 12  1  0
  3  6  2  0
  5  7  1  0
  5  8  1  0
M  END
