O=CC(=O)C.O_2
     RDKit          3D

 12 10  0  0  0  0  0  0  0  0999 V2000
   -1.2922    1.3136    2.8853 C   0  0  0  0  0  0  0  0  0  0  0  0
    0.2511    0.3933    1.0982 C   0  0  0  0  0  0  0  0  0  0  0  0
   -1.0539    0.3453    1.8053 C   0  0  0  0  0  0  0  0  0  0  0  0
   -0.4839    2.1349    3.2177 O   0  0  0  0  0  0  0  0  0  0  0  0
   -0.9743   -2.1339   -0.6772 O   0  0  0  0  0  0  0  0  0  0  0  0
   -1.8971   -0.4630    1.5046 O   0  0  0  0  0  0  0  0  0  0  0  0
   -1.6710   -2.7719   -0.9000 H   0  0  0  0  0  0  0  0  0  0  0  0
   -1.3363   -1.5999    0.0602 H   0  0  0  0  0  0  0  0  0  0  0  0
   -2.2374    1.2938    3.4122 H   0  0  0  0  0  0  0  0  0  0  0  0
    0.7743   -0.5584    1.2053 H   0  0  0  0  0  0  0  0  0  0  0  0
    0.8789    1.1886    1.5065 H   0  0  0  0  0  0  0  0  0  0  0  0
    0.0977    0.5773    0.0335 H   0  0  0  0  0  0  0  0  0  0  0  0
  1  3  1  0
  1  4  2  0
  1  9  1  0
  2  3  1  0
  2 10  1  0
  2 11  1  0
  2 12  1  0
  3  6  2  0
  5  7  1  0
  5  8  1  0
M  END
