O=CC(=O)C.O_7
     RDKit          3D

 12 10  0  0  0  0  0  0  0  0999 V2000
   -1.7250    0.6460    1.9735 C   0  0  0  0  0  0  0  0  0  0  0  0
    0.5953    0.6920    0.9278 C   0  0  0  0  0  0  0  0  0  0  0  0
   -0.3568    0.0934    1.8964 C   0  0  0  0  0  0  0  0  0  0  0  0
   -2.3282    0.9999    0.9979 O   0  0  0  0  0  0  0  0  0  0  0  0
   -1.8760   -1.9722    0.3619 O   0  0  0  0  0  0  0  0  0  0  0  0
   -0.0459   -0.8578    2.5704 O   0  0  0  0  0  0  0  0  0  0  0  0
   -1.2474   -1.9715    1.1090 H   0  0  0  0  0  0  0  0  0  0  0  0
   -2.2226   -1.0587    0.3619 H   0  0  0  0  0  0  0  0  0  0  0  0
   -2.2583    0.6310    2.9162 H   0  0  0  0  0  0  0  0  0  0  0  0
    0.1356    1.5315    0.4018 H   0  0  0  0  0  0  0  0  0  0  0  0
    0.8944   -0.0557    0.1910 H   0  0  0  0  0  0  0  0  0  0  0  0
    1.4906    1.0415    1.4440 H   0  0  0  0  0  0  0  0  0  0  0  0
  1  3  1  0
  1  4  2  0
  1  9  1  0
  2  3  1  0
  2 10  1  0
  2 11  1  0
  2 12  1  0
  3  6  2  0
  5  7  1  0
  5  8  1  0
M  END
