O=CCC(=O)O.[H][H]_3
     RDKit          3D

 12 10  0  0  0  0  0  0  0  0999 V2000
    0.5490    1.3556    0.7514 C   0  0  0  0  0  0  0  0  0  0  0  0
    0.0349    0.6370    1.9594 C   0  0  0  0  0  0  0  0  0  0  0  0
   -1.0541    1.3783    2.6353 C   0  0  0  0  0  0  0  0  0  0  0  0
   -0.2109    1.9745    0.0430 O   0  0  0  0  0  0  0  0  0  0  0  0
    1.8684    1.2610    0.4944 O   0  0  0  0  0  0  0  0  0  0  0  0
   -1.4762    1.1065    3.7183 O   0  0  0  0  0  0  0  0  0  0  0  0
    2.0517    1.7670   -0.3187 H   0  0  0  0  0  0  0  0  0  0  0  0
   -0.8654   -0.6458   -1.0468 H   0  0  0  0  0  0  0  0  0  0  0  0
   -1.0933    0.0045   -1.4058 H   0  0  0  0  0  0  0  0  0  0  0  0
   -1.5467    2.1939    2.1127 H   0  0  0  0  0  0  0  0  0  0  0  0
   -0.3268   -0.3553    1.6716 H   0  0  0  0  0  0  0  0  0  0  0  0
    0.8570    0.4823    2.6657 H   0  0  0  0  0  0  0  0  0  0  0  0
  1  2  1  0
  1  4  2  0
  1  5  1  0
  2  3  1  0
  2 11  1  0
  2 12  1  0
  3  6  2  0
  3 10  1  0
  5  7  1  0
  8  9  1  0
M  END
