O=CCC(=O)O.[H][H]_10
     RDKit          3D

 12 10  0  0  0  0  0  0  0  0999 V2000
    0.7115    0.5535    0.9718 C   0  0  0  0  0  0  0  0  0  0  0  0
   -0.5569    1.0217    1.6128 C   0  0  0  0  0  0  0  0  0  0  0  0
   -0.5614    0.8019    3.0770 C   0  0  0  0  0  0  0  0  0  0  0  0
    1.2139   -0.4909    1.3161 O   0  0  0  0  0  0  0  0  0  0  0  0
    1.2396    1.3311    0.0062 O   0  0  0  0  0  0  0  0  0  0  0  0
   -1.3572    1.2864    3.8231 O   0  0  0  0  0  0  0  0  0  0  0  0
    2.0510    0.8972   -0.3165 H   0  0  0  0  0  0  0  0  0  0  0  0
   -0.6841    1.6614   -1.8184 H   0  0  0  0  0  0  0  0  0  0  0  0
   -1.3289    1.3876   -1.4824 H   0  0  0  0  0  0  0  0  0  0  0  0
    0.1627    0.1205    3.5156 H   0  0  0  0  0  0  0  0  0  0  0  0
   -0.6932    2.0888    1.4092 H   0  0  0  0  0  0  0  0  0  0  0  0
   -1.4095    0.5004    1.1659 H   0  0  0  0  0  0  0  0  0  0  0  0
  1  2  1  0
  1  4  2  0
  1  5  1  0
  2  3  1  0
  2 11  1  0
  2 12  1  0
  3  6  2  0
  3 10  1  0
  5  7  1  0
  8  9  1  0
M  END
