O=CCC(=O)O.[H][H]_4
     RDKit          3D

 12 10  0  0  0  0  0  0  0  0999 V2000
    1.3914    0.7377    1.4944 C   0  0  0  0  0  0  0  0  0  0  0  0
   -0.0000    1.0615    1.0489 C   0  0  0  0  0  0  0  0  0  0  0  0
   -1.0256    0.3414    1.8377 C   0  0  0  0  0  0  0  0  0  0  0  0
    1.6382    0.6166    2.6719 O   0  0  0  0  0  0  0  0  0  0  0  0
    2.3309    0.6084    0.5371 O   0  0  0  0  0  0  0  0  0  0  0  0
   -2.1774    0.2716    1.5325 O   0  0  0  0  0  0  0  0  0  0  0  0
    3.1785    0.4070    0.9750 H   0  0  0  0  0  0  0  0  0  0  0  0
   -3.0390    1.9344   -0.1914 H   0  0  0  0  0  0  0  0  0  0  0  0
   -2.4826    2.3583   -0.5296 H   0  0  0  0  0  0  0  0  0  0  0  0
   -0.7453   -0.1180    2.7818 H   0  0  0  0  0  0  0  0  0  0  0  0
   -0.1706    2.1398    1.1307 H   0  0  0  0  0  0  0  0  0  0  0  0
   -0.1110    0.8010   -0.0087 H   0  0  0  0  0  0  0  0  0  0  0  0
  1  2  1  0
  1  4  2  0
  1  5  1  0
  2  3  1  0
  2 11  1  0
  2 12  1  0
  3  6  2  0
  3 10  1  0
  5  7  1  0
  8  9  1  0
M  END
