O=CCC(=O)O.[H][H]_1
     RDKit          3D

 12 10  0  0  0  0  0  0  0  0999 V2000
    0.8778    1.2161    0.7353 C   0  0  0  0  0  0  0  0  0  0  0  0
    0.1384    0.7108    1.9344 C   0  0  0  0  0  0  0  0  0  0  0  0
   -1.1314    1.4377    2.1613 C   0  0  0  0  0  0  0  0  0  0  0  0
    0.2718    1.5430   -0.2586 O   0  0  0  0  0  0  0  0  0  0  0  0
    2.2218    1.2682    0.8176 O   0  0  0  0  0  0  0  0  0  0  0  0
   -1.7806    1.3540    3.1595 O   0  0  0  0  0  0  0  0  0  0  0  0
    2.5605    1.6063   -0.0320 H   0  0  0  0  0  0  0  0  0  0  0  0
   -1.6561   -0.0322   -0.9266 H   0  0  0  0  0  0  0  0  0  0  0  0
   -1.8754   -0.4533   -0.3116 H   0  0  0  0  0  0  0  0  0  0  0  0
   -1.5418    2.0540    1.3659 H   0  0  0  0  0  0  0  0  0  0  0  0
   -0.0714   -0.3569    1.8147 H   0  0  0  0  0  0  0  0  0  0  0  0
    0.7738    0.8119    2.8204 H   0  0  0  0  0  0  0  0  0  0  0  0
  1  2  1  0
  1  4  2  0
  1  5  1  0
  2  3  1  0
  2 11  1  0
  2 12  1  0
  3  6  2  0
  3 10  1  0
  5  7  1  0
  8  9  1  0
M  END
