O=CCC(=O)O.[H][H]_7
     RDKit          3D

 12 10  0  0  0  0  0  0  0  0999 V2000
    1.3605    1.2421    0.9035 C   0  0  0  0  0  0  0  0  0  0  0  0
    0.1318    0.6560    1.5249 C   0  0  0  0  0  0  0  0  0  0  0  0
   -1.0077    1.6014    1.5190 C   0  0  0  0  0  0  0  0  0  0  0  0
    1.2691    1.9381   -0.0809 O   0  0  0  0  0  0  0  0  0  0  0  0
    2.5431    0.9450    1.4771 O   0  0  0  0  0  0  0  0  0  0  0  0
   -2.0126    1.4416    2.1431 O   0  0  0  0  0  0  0  0  0  0  0  0
    3.2441    1.3869    0.9633 H   0  0  0  0  0  0  0  0  0  0  0  0
   -3.2487   -0.1591    0.4415 H   0  0  0  0  0  0  0  0  0  0  0  0
   -2.7229   -0.4767   -0.0342 H   0  0  0  0  0  0  0  0  0  0  0  0
   -0.9701    2.4763    0.8755 H   0  0  0  0  0  0  0  0  0  0  0  0
   -0.1509   -0.2566    0.9904 H   0  0  0  0  0  0  0  0  0  0  0  0
    0.3518    0.3646    2.5571 H   0  0  0  0  0  0  0  0  0  0  0  0
  1  2  1  0
  1  4  2  0
  1  5  1  0
  2  3  1  0
  2 11  1  0
  2 12  1  0
  3  6  2  0
  3 10  1  0
  5  7  1  0
  8  9  1  0
M  END
