O=CCC(=O)O.[H][H]_5
     RDKit          3D

 12 10  0  0  0  0  0  0  0  0999 V2000
    0.4945    0.5648    0.8144 C   0  0  0  0  0  0  0  0  0  0  0  0
   -0.2252    1.3368    1.8752 C   0  0  0  0  0  0  0  0  0  0  0  0
   -0.7963    0.4583    2.9212 C   0  0  0  0  0  0  0  0  0  0  0  0
    0.0459   -0.4862    0.4193 O   0  0  0  0  0  0  0  0  0  0  0  0
    1.6302    1.1006    0.3253 O   0  0  0  0  0  0  0  0  0  0  0  0
   -1.2227    0.8511    3.9647 O   0  0  0  0  0  0  0  0  0  0  0  0
    1.9777    0.4949   -0.3552 H   0  0  0  0  0  0  0  0  0  0  0  0
   -1.1783    1.7805   -1.4131 H   0  0  0  0  0  0  0  0  0  0  0  0
   -0.4894    1.6929   -1.7611 H   0  0  0  0  0  0  0  0  0  0  0  0
   -0.8895   -0.6073    2.7291 H   0  0  0  0  0  0  0  0  0  0  0  0
    0.4677    2.0458    2.3399 H   0  0  0  0  0  0  0  0  0  0  0  0
   -1.0271    1.9275    1.4209 H   0  0  0  0  0  0  0  0  0  0  0  0
  1  2  1  0
  1  4  2  0
  1  5  1  0
  2  3  1  0
  2 11  1  0
  2 12  1  0
  3  6  2  0
  3 10  1  0
  5  7  1  0
  8  9  1  0
M  END
