O=CCC(=O)O.[H][H]_13
     RDKit          3D

 12 10  0  0  0  0  0  0  0  0999 V2000
    0.4100    1.1129    0.9088 C   0  0  0  0  0  0  0  0  0  0  0  0
    0.3079    1.0031    2.3977 C   0  0  0  0  0  0  0  0  0  0  0  0
   -1.0775    0.7397    2.8490 C   0  0  0  0  0  0  0  0  0  0  0  0
   -0.4493    1.6895    0.2836 O   0  0  0  0  0  0  0  0  0  0  0  0
    1.4917    0.5624    0.3231 O   0  0  0  0  0  0  0  0  0  0  0  0
   -1.3673    0.4064    3.9579 O   0  0  0  0  0  0  0  0  0  0  0  0
    1.4246    0.7175   -0.6371 H   0  0  0  0  0  0  0  0  0  0  0  0
   -1.1134    1.1531   -2.0952 H   0  0  0  0  0  0  0  0  0  0  0  0
   -0.5670    0.7515   -2.4744 H   0  0  0  0  0  0  0  0  0  0  0  0
   -1.9020    0.9017    2.1600 H   0  0  0  0  0  0  0  0  0  0  0  0
    0.9595    0.1953    2.7467 H   0  0  0  0  0  0  0  0  0  0  0  0
    0.6703    1.9266    2.8603 H   0  0  0  0  0  0  0  0  0  0  0  0
  1  2  1  0
  1  4  2  0
  1  5  1  0
  2  3  1  0
  2 11  1  0
  2 12  1  0
  3  6  2  0
  3 10  1  0
  5  7  1  0
  8  9  1  0
M  END
