O=CCC(=O)O.[H][H]_19
     RDKit          3D

 12 10  0  0  0  0  0  0  0  0999 V2000
    1.4882    0.5651    1.1625 C   0  0  0  0  0  0  0  0  0  0  0  0
    0.3597    1.0549    2.0146 C   0  0  0  0  0  0  0  0  0  0  0  0
   -0.9576    0.8739    1.3633 C   0  0  0  0  0  0  0  0  0  0  0  0
    1.3636   -0.4482    0.5148 O   0  0  0  0  0  0  0  0  0  0  0  0
    2.6256    1.2878    1.1710 O   0  0  0  0  0  0  0  0  0  0  0  0
   -1.9697    1.3727    1.7525 O   0  0  0  0  0  0  0  0  0  0  0  0
    3.2650    0.8461    0.5821 H   0  0  0  0  0  0  0  0  0  0  0  0
   -3.4829    1.2269   -0.8329 H   0  0  0  0  0  0  0  0  0  0  0  0
   -3.7372    1.5265   -0.1627 H   0  0  0  0  0  0  0  0  0  0  0  0
   -1.0409    0.2117    0.5056 H   0  0  0  0  0  0  0  0  0  0  0  0
    0.3658    0.5256    2.9728 H   0  0  0  0  0  0  0  0  0  0  0  0
    0.5082    2.1166    2.2368 H   0  0  0  0  0  0  0  0  0  0  0  0
  1  2  1  0
  1  4  2  0
  1  5  1  0
  2  3  1  0
  2 11  1  0
  2 12  1  0
  3  6  2  0
  3 10  1  0
  5  7  1  0
  8  9  1  0
M  END
