O=CCC(=O)O.[H][H]_2
     RDKit          3D

 12 10  0  0  0  0  0  0  0  0999 V2000
    0.6888    0.6200    0.8046 C   0  0  0  0  0  0  0  0  0  0  0  0
   -0.0181    1.3404    1.9099 C   0  0  0  0  0  0  0  0  0  0  0  0
   -1.0062    0.4815    2.6014 C   0  0  0  0  0  0  0  0  0  0  0  0
    0.0965   -0.1905    0.1305 O   0  0  0  0  0  0  0  0  0  0  0  0
    1.9833    0.9310    0.5970 O   0  0  0  0  0  0  0  0  0  0  0  0
   -1.5396    0.7699    3.6296 O   0  0  0  0  0  0  0  0  0  0  0  0
    2.3033    0.3945   -0.1517 H   0  0  0  0  0  0  0  0  0  0  0  0
   -1.2868    2.0311   -1.1182 H   0  0  0  0  0  0  0  0  0  0  0  0
   -1.3122    1.3107   -1.4077 H   0  0  0  0  0  0  0  0  0  0  0  0
   -1.3151   -0.4524    2.1394 H   0  0  0  0  0  0  0  0  0  0  0  0
    0.7179    1.6992    2.6368 H   0  0  0  0  0  0  0  0  0  0  0  0
   -0.5243    2.2243    1.5089 H   0  0  0  0  0  0  0  0  0  0  0  0
  1  2  1  0
  1  4  2  0
  1  5  1  0
  2  3  1  0
  2 11  1  0
  2 12  1  0
  3  6  2  0
  3 10  1  0
  5  7  1  0
  8  9  1  0
M  END
