O=CCC(=O)O.[H][H]_17
     RDKit          3D

 12 10  0  0  0  0  0  0  0  0999 V2000
    0.3288    0.9313    0.9031 C   0  0  0  0  0  0  0  0  0  0  0  0
    0.3037    0.8530    2.3973 C   0  0  0  0  0  0  0  0  0  0  0  0
   -1.0585    1.0365    2.9480 C   0  0  0  0  0  0  0  0  0  0  0  0
   -0.5663    0.4402    0.2553 O   0  0  0  0  0  0  0  0  0  0  0  0
    1.3846    1.5479    0.3364 O   0  0  0  0  0  0  0  0  0  0  0  0
   -1.2930    1.2239    4.1033 O   0  0  0  0  0  0  0  0  0  0  0  0
    1.2677    1.5151   -0.6309 H   0  0  0  0  0  0  0  0  0  0  0  0
   -0.9494    0.4063   -2.2268 H   0  0  0  0  0  0  0  0  0  0  0  0
   -0.3775    0.7502   -2.6246 H   0  0  0  0  0  0  0  0  0  0  0  0
   -1.9163    0.9496    2.2865 H   0  0  0  0  0  0  0  0  0  0  0  0
    0.6983   -0.1153    2.7216 H   0  0  0  0  0  0  0  0  0  0  0  0
    0.9653    1.6209    2.8113 H   0  0  0  0  0  0  0  0  0  0  0  0
  1  2  1  0
  1  4  2  0
  1  5  1  0
  2  3  1  0
  2 11  1  0
  2 12  1  0
  3  6  2  0
  3 10  1  0
  5  7  1  0
  8  9  1  0
M  END
