O=CCC(=O)O.[H][H]_11
     RDKit          3D

 12 10  0  0  0  0  0  0  0  0999 V2000
    1.3354    0.4091    1.2592 C   0  0  0  0  0  0  0  0  0  0  0  0
    0.1077    1.1969    1.5934 C   0  0  0  0  0  0  0  0  0  0  0  0
   -1.0945    0.3413    1.7160 C   0  0  0  0  0  0  0  0  0  0  0  0
    1.5146   -0.6765    1.7606 O   0  0  0  0  0  0  0  0  0  0  0  0
    2.2138    0.9697    0.4050 O   0  0  0  0  0  0  0  0  0  0  0  0
   -2.2106    0.7601    1.7760 O   0  0  0  0  0  0  0  0  0  0  0  0
    2.9575    0.3496    0.2908 H   0  0  0  0  0  0  0  0  0  0  0  0
   -2.3401    2.5983   -0.5309 H   0  0  0  0  0  0  0  0  0  0  0  0
   -2.9221    2.2577   -0.1451 H   0  0  0  0  0  0  0  0  0  0  0  0
   -0.9748   -0.7348    1.8084 H   0  0  0  0  0  0  0  0  0  0  0  0
    0.2630    1.7397    2.5313 H   0  0  0  0  0  0  0  0  0  0  0  0
   -0.0624    1.9485    0.8157 H   0  0  0  0  0  0  0  0  0  0  0  0
  1  2  1  0
  1  4  2  0
  1  5  1  0
  2  3  1  0
  2 11  1  0
  2 12  1  0
  3  6  2  0
  3 10  1  0
  5  7  1  0
  8  9  1  0
M  END
