O=CCC(=O)O.[H][H]_18
     RDKit          3D

 12 10  0  0  0  0  0  0  0  0999 V2000
    0.7352    0.3532    1.0275 C   0  0  0  0  0  0  0  0  0  0  0  0
   -0.1531    1.2088    1.8753 C   0  0  0  0  0  0  0  0  0  0  0  0
   -0.9884    0.4096    2.8005 C   0  0  0  0  0  0  0  0  0  0  0  0
    1.2725   -0.6202    1.5028 O   0  0  0  0  0  0  0  0  0  0  0  0
    0.9116    0.7273   -0.2549 O   0  0  0  0  0  0  0  0  0  0  0  0
   -1.9135    0.8483    3.4141 O   0  0  0  0  0  0  0  0  0  0  0  0
    1.5141    0.0849   -0.6733 H   0  0  0  0  0  0  0  0  0  0  0  0
   -0.5038    2.3461   -1.7728 H   0  0  0  0  0  0  0  0  0  0  0  0
   -1.0067    2.7122   -1.3073 H   0  0  0  0  0  0  0  0  0  0  0  0
   -0.7319   -0.6299    2.9863 H   0  0  0  0  0  0  0  0  0  0  0  0
    0.4556    1.9122    2.4524 H   0  0  0  0  0  0  0  0  0  0  0  0
   -0.8041    1.8071    1.2297 H   0  0  0  0  0  0  0  0  0  0  0  0
  1  2  1  0
  1  4  2  0
  1  5  1  0
  2  3  1  0
  2 11  1  0
  2 12  1  0
  3  6  2  0
  3 10  1  0
  5  7  1  0
  8  9  1  0
M  END
