O=CCC(=O)O.[H][H]_0
     RDKit          3D

 12 10  0  0  0  0  0  0  0  0999 V2000
    0.8662    1.2810    0.8996 C   0  0  0  0  0  0  0  0  0  0  0  0
    0.1625    0.6486    2.0589 C   0  0  0  0  0  0  0  0  0  0  0  0
   -1.2095    1.1751    2.2398 C   0  0  0  0  0  0  0  0  0  0  0  0
    0.7342    2.4630    0.6816 O   0  0  0  0  0  0  0  0  0  0  0  0
    1.6466    0.4845    0.1429 O   0  0  0  0  0  0  0  0  0  0  0  0
   -2.0303    0.6737    2.9467 O   0  0  0  0  0  0  0  0  0  0  0  0
    2.0398    1.0325   -0.5612 H   0  0  0  0  0  0  0  0  0  0  0  0
   -1.4020    0.1081   -0.7127 H   0  0  0  0  0  0  0  0  0  0  0  0
   -1.3798    0.8104   -1.0443 H   0  0  0  0  0  0  0  0  0  0  0  0
   -1.4932    2.1019    1.7485 H   0  0  0  0  0  0  0  0  0  0  0  0
    0.1145   -0.4346    1.9060 H   0  0  0  0  0  0  0  0  0  0  0  0
    0.7386    0.8153    2.9746 H   0  0  0  0  0  0  0  0  0  0  0  0
  1  2  1  0
  1  4  2  0
  1  5  1  0
  2  3  1  0
  2 11  1  0
  2 12  1  0
  3  6  2  0
  3 10  1  0
  5  7  1  0
  8  9  1  0
M  END
