C/N=C/C_0
     RDKit          3D

 11 10  0  0  0  0  0  0  0  0999 V2000
   -0.5160    1.2277   -0.4039 C   0  0  0  0  0  0  0  0  0  0  0  0
   -0.2321    0.2807    0.5670 N   0  0  0  0  0  0  0  0  0  0  0  0
    0.7708    0.3722    1.3277 C   0  0  0  0  0  0  0  0  0  0  0  0
    1.0914   -0.6487    2.3441 C   0  0  0  0  0  0  0  0  0  0  0  0
   -0.6629    2.2093    0.0522 H   0  0  0  0  0  0  0  0  0  0  0  0
    0.1808   -0.9878    2.8421 H   0  0  0  0  0  0  0  0  0  0  0  0
   -1.4289    0.9515   -0.9358 H   0  0  0  0  0  0  0  0  0  0  0  0
    0.3013    1.2907   -1.1258 H   0  0  0  0  0  0  0  0  0  0  0  0
    1.4379    1.2086    1.1898 H   0  0  0  0  0  0  0  0  0  0  0  0
    1.5599   -1.5208    1.8829 H   0  0  0  0  0  0  0  0  0  0  0  0
    1.7687   -0.2657    3.1116 H   0  0  0  0  0  0  0  0  0  0  0  0
  1  2  1  0
  1  5  1  0
  1  7  1  0
  1  8  1  0
  2  3  2  0
  3  4  1  0
  3  9  1  0
  4  6  1  0
  4 10  1  0
  4 11  1  0
M  END
