O1COC=CO1.[H][H]_1
     RDKit          3D

 12 11  0  0  0  0  0  0  0  0999 V2000
   -0.5132    0.0119    0.0234 C   0  0  0  0  0  0  0  0  0  0  0  0
   -0.4035    1.0121    2.5369 C   0  0  0  0  0  0  0  0  0  0  0  0
    0.6388    0.3452    2.0488 C   0  0  0  0  0  0  0  0  0  0  0  0
   -1.6455    0.0958    0.8243 O   0  0  0  0  0  0  0  0  0  0  0  0
   -1.4852    1.2282    1.7243 O   0  0  0  0  0  0  0  0  0  0  0  0
    0.6930   -0.1120    0.7468 O   0  0  0  0  0  0  0  0  0  0  0  0
    0.7895    3.2438    0.8021 H   0  0  0  0  0  0  0  0  0  0  0  0
   -0.6173   -0.8577   -0.6383 H   0  0  0  0  0  0  0  0  0  0  0  0
   -0.4613    0.9296   -0.5759 H   0  0  0  0  0  0  0  0  0  0  0  0
    1.5092    0.1397    2.6567 H   0  0  0  0  0  0  0  0  0  0  0  0
    0.0339    3.4246    0.7983 H   0  0  0  0  0  0  0  0  0  0  0  0
   -0.4300    1.3878    3.5470 H   0  0  0  0  0  0  0  0  0  0  0  0
  1  4  1  0
  1  6  1  0
  1  8  1  0
  1  9  1  0
  2  3  2  0
  2  5  1  0
  2 12  1  0
  3  6  1  0
  3 10  1  0
  4  5  1  0
  7 11  1  0
M  END
