O1COC=CO1.[H][H]_2
     RDKit          3D

 12 11  0  0  0  0  0  0  0  0999 V2000
   -0.3345    0.0399   -0.0556 C   0  0  0  0  0  0  0  0  0  0  0  0
   -0.1634    0.6824    2.5685 C   0  0  0  0  0  0  0  0  0  0  0  0
    0.8955    0.8489    1.7810 C   0  0  0  0  0  0  0  0  0  0  0  0
   -1.0384   -0.6635    0.9141 O   0  0  0  0  0  0  0  0  0  0  0  0
   -1.3361    0.2457    2.0107 O   0  0  0  0  0  0  0  0  0  0  0  0
    0.8565    0.6325    0.4175 O   0  0  0  0  0  0  0  0  0  0  0  0
   -0.7500    3.4661    1.5584 H   0  0  0  0  0  0  0  0  0  0  0  0
   -0.0842   -0.6482   -0.8734 H   0  0  0  0  0  0  0  0  0  0  0  0
   -0.9898    0.8368   -0.4289 H   0  0  0  0  0  0  0  0  0  0  0  0
    1.8453    1.1789    2.1785 H   0  0  0  0  0  0  0  0  0  0  0  0
   -0.6587    3.3528    0.7951 H   0  0  0  0  0  0  0  0  0  0  0  0
   -0.1339    0.8768    3.6285 H   0  0  0  0  0  0  0  0  0  0  0  0
  1  4  1  0
  1  6  1  0
  1  8  1  0
  1  9  1  0
  2  3  2  0
  2  5  1  0
  2 12  1  0
  3  6  1  0
  3 10  1  0
  4  5  1  0
  7 11  1  0
M  END
