O1COC=CO1.[H][H]_3
     RDKit          3D

 12 11  0  0  0  0  0  0  0  0999 V2000
   -0.7256    0.3310    0.2839 C   0  0  0  0  0  0  0  0  0  0  0  0
    0.3859    0.8291    2.7001 C   0  0  0  0  0  0  0  0  0  0  0  0
   -0.4951   -0.1595    2.5736 C   0  0  0  0  0  0  0  0  0  0  0  0
    0.5782    0.7962    0.4022 O   0  0  0  0  0  0  0  0  0  0  0  0
    0.6645    1.6074    1.6077 O   0  0  0  0  0  0  0  0  0  0  0  0
   -1.1683   -0.4178    1.3958 O   0  0  0  0  0  0  0  0  0  0  0  0
    0.7265    3.2153   -0.3099 H   0  0  0  0  0  0  0  0  0  0  0  0
   -1.3816    1.2036    0.1756 H   0  0  0  0  0  0  0  0  0  0  0  0
   -0.7924   -0.2977   -0.6136 H   0  0  0  0  0  0  0  0  0  0  0  0
   -0.7356   -0.8077    3.4050 H   0  0  0  0  0  0  0  0  0  0  0  0
    0.1616    3.5087   -0.7551 H   0  0  0  0  0  0  0  0  0  0  0  0
    0.8902    1.0406    3.6292 H   0  0  0  0  0  0  0  0  0  0  0  0
  1  4  1  0
  1  6  1  0
  1  8  1  0
  1  9  1  0
  2  3  2  0
  2  5  1  0
  2 12  1  0
  3  6  1  0
  3 10  1  0
  4  5  1  0
  7 11  1  0
M  END
