O1COC=CO1.[H][H]_8
     RDKit          3D

 12 11  0  0  0  0  0  0  0  0999 V2000
   -0.2736    1.4579    0.9516 C   0  0  0  0  0  0  0  0  0  0  0  0
    0.7059   -0.4584    2.5917 C   0  0  0  0  0  0  0  0  0  0  0  0
   -0.5282    0.0003    2.7812 C   0  0  0  0  0  0  0  0  0  0  0  0
    1.0740    1.4058    1.2853 O   0  0  0  0  0  0  0  0  0  0  0  0
    1.4290    0.0156    1.5289 O   0  0  0  0  0  0  0  0  0  0  0  0
   -1.1277    0.9114    1.9339 O   0  0  0  0  0  0  0  0  0  0  0  0
   -1.3527    2.5153   -2.1609 H   0  0  0  0  0  0  0  0  0  0  0  0
   -0.5526    2.5065    0.7864 H   0  0  0  0  0  0  0  0  0  0  0  0
   -0.4081    0.8865    0.0245 H   0  0  0  0  0  0  0  0  0  0  0  0
   -1.1309   -0.3353    3.6139 H   0  0  0  0  0  0  0  0  0  0  0  0
   -0.8861    3.1316   -2.0850 H   0  0  0  0  0  0  0  0  0  0  0  0
    1.1593   -1.1881    3.2430 H   0  0  0  0  0  0  0  0  0  0  0  0
  1  4  1  0
  1  6  1  0
  1  8  1  0
  1  9  1  0
  2  3  2  0
  2  5  1  0
  2 12  1  0
  3  6  1  0
  3 10  1  0
  4  5  1  0
  7 11  1  0
M  END
