O1COC=CO1.[H][H]_5
     RDKit          3D

 12 11  0  0  0  0  0  0  0  0999 V2000
   -0.3160    0.4719    0.1618 C   0  0  0  0  0  0  0  0  0  0  0  0
    0.8529    0.0894    2.5717 C   0  0  0  0  0  0  0  0  0  0  0  0
   -0.2424    0.8392    2.4848 C   0  0  0  0  0  0  0  0  0  0  0  0
    0.3255   -0.7193    0.4774 O   0  0  0  0  0  0  0  0  0  0  0  0
    1.3927   -0.4245    1.4221 O   0  0  0  0  0  0  0  0  0  0  0  0
   -0.8440    1.1507    1.2814 O   0  0  0  0  0  0  0  0  0  0  0  0
   -1.5875    3.4649    0.4113 H   0  0  0  0  0  0  0  0  0  0  0  0
    0.4198    1.1271   -0.3209 H   0  0  0  0  0  0  0  0  0  0  0  0
   -1.1346    0.2542   -0.5366 H   0  0  0  0  0  0  0  0  0  0  0  0
   -0.7104    1.2547    3.3665 H   0  0  0  0  0  0  0  0  0  0  0  0
   -1.3796    3.4710   -0.3373 H   0  0  0  0  0  0  0  0  0  0  0  0
    1.3318   -0.1302    3.5123 H   0  0  0  0  0  0  0  0  0  0  0  0
  1  4  1  0
  1  6  1  0
  1  8  1  0
  1  9  1  0
  2  3  2  0
  2  5  1  0
  2 12  1  0
  3  6  1  0
  3 10  1  0
  4  5  1  0
  7 11  1  0
M  END
