O1COC=CO1.[H][H]_4
     RDKit          3D

 12 11  0  0  0  0  0  0  0  0999 V2000
   -0.8352    0.1644    0.2290 C   0  0  0  0  0  0  0  0  0  0  0  0
    0.2891    0.8241    2.6008 C   0  0  0  0  0  0  0  0  0  0  0  0
   -0.5471   -0.2082    2.5348 C   0  0  0  0  0  0  0  0  0  0  0  0
   -0.5471    1.4836    0.5557 O   0  0  0  0  0  0  0  0  0  0  0  0
    0.6042    1.4910    1.4463 O   0  0  0  0  0  0  0  0  0  0  0  0
   -1.0883   -0.6597    1.3471 O   0  0  0  0  0  0  0  0  0  0  0  0
    0.8329    3.4567    0.0014 H   0  0  0  0  0  0  0  0  0  0  0  0
   -1.7164    0.1507   -0.4252 H   0  0  0  0  0  0  0  0  0  0  0  0
    0.0319   -0.2417   -0.3070 H   0  0  0  0  0  0  0  0  0  0  0  0
   -0.8353   -0.7556    3.4217 H   0  0  0  0  0  0  0  0  0  0  0  0
    1.1920    3.9870   -0.4380 H   0  0  0  0  0  0  0  0  0  0  0  0
    0.7276    1.1568    3.5278 H   0  0  0  0  0  0  0  0  0  0  0  0
  1  4  1  0
  1  6  1  0
  1  8  1  0
  1  9  1  0
  2  3  2  0
  2  5  1  0
  2 12  1  0
  3  6  1  0
  3 10  1  0
  4  5  1  0
  7 11  1  0
M  END
