O1COC=CO1.[H][H]_0
     RDKit          3D

 12 11  0  0  0  0  0  0  0  0999 V2000
   -0.4184    0.0092    0.0162 C   0  0  0  0  0  0  0  0  0  0  0  0
   -0.6224    1.0060    2.5236 C   0  0  0  0  0  0  0  0  0  0  0  0
    0.5068    0.4162    2.1412 C   0  0  0  0  0  0  0  0  0  0  0  0
   -1.1711    1.1450    0.2876 O   0  0  0  0  0  0  0  0  0  0  0  0
   -1.6761    1.0420    1.6488 O   0  0  0  0  0  0  0  0  0  0  0  0
    0.6551   -0.1927    0.9106 O   0  0  0  0  0  0  0  0  0  0  0  0
    0.9553    3.2353    1.0388 H   0  0  0  0  0  0  0  0  0  0  0  0
   -1.0884   -0.8569    0.0836 H   0  0  0  0  0  0  0  0  0  0  0  0
   -0.0174    0.0906   -1.0025 H   0  0  0  0  0  0  0  0  0  0  0  0
    1.3688    0.3764    2.7930 H   0  0  0  0  0  0  0  0  0  0  0  0
    0.3556    3.1187    0.5588 H   0  0  0  0  0  0  0  0  0  0  0  0
   -0.7395    1.4594    3.4948 H   0  0  0  0  0  0  0  0  0  0  0  0
  1  4  1  0
  1  6  1  0
  1  8  1  0
  1  9  1  0
  2  3  2  0
  2  5  1  0
  2 12  1  0
  3  6  1  0
  3 10  1  0
  4  5  1  0
  7 11  1  0
M  END
