CCOOC=O_0
     RDKit          3D

 12 11  0  0  0  0  0  0  0  0999 V2000
    1.6763    0.7192    0.0139 C   0  0  0  0  0  0  0  0  0  0  0  0
    1.1213   -0.2790   -0.9685 C   0  0  0  0  0  0  0  0  0  0  0  0
   -0.5160    0.7884    1.8377 C   0  0  0  0  0  0  0  0  0  0  0  0
    0.7728    1.7571    0.2251 O   0  0  0  0  0  0  0  0  0  0  0  0
   -0.5383    1.2308    0.5722 O   0  0  0  0  0  0  0  0  0  0  0  0
    0.4632    0.6220    2.5103 O   0  0  0  0  0  0  0  0  0  0  0  0
    1.8001   -1.1179   -1.1379 H   0  0  0  0  0  0  0  0  0  0  0  0
    2.6160    1.1710   -0.3311 H   0  0  0  0  0  0  0  0  0  0  0  0
    1.8603    0.2722    1.0022 H   0  0  0  0  0  0  0  0  0  0  0  0
   -1.4679    0.5120    2.2641 H   0  0  0  0  0  0  0  0  0  0  0  0
    0.1698   -0.6718   -0.6050 H   0  0  0  0  0  0  0  0  0  0  0  0
    0.9201    0.2029   -1.9270 H   0  0  0  0  0  0  0  0  0  0  0  0
  1  2  1  0
  1  4  1  0
  1  8  1  0
  1  9  1  0
  2  7  1  0
  2 11  1  0
  2 12  1  0
  3  5  1  0
  3  6  2  0
  3 10  1  0
  4  5  1  0
M  END
