CCOOC=O_1
     RDKit          3D

 12 11  0  0  0  0  0  0  0  0999 V2000
    1.9586    0.5881   -0.0754 C   0  0  0  0  0  0  0  0  0  0  0  0
    0.8612   -0.1710   -0.7764 C   0  0  0  0  0  0  0  0  0  0  0  0
   -0.6071    0.8411    1.6396 C   0  0  0  0  0  0  0  0  0  0  0  0
    1.6443    0.8212    1.2633 O   0  0  0  0  0  0  0  0  0  0  0  0
    0.4444    1.6323    1.3808 O   0  0  0  0  0  0  0  0  0  0  0  0
   -0.6386   -0.3557    1.5618 O   0  0  0  0  0  0  0  0  0  0  0  0
    1.1316   -0.4585   -1.7948 H   0  0  0  0  0  0  0  0  0  0  0  0
    2.1386    1.5703   -0.5325 H   0  0  0  0  0  0  0  0  0  0  0  0
    2.9080    0.0356   -0.0830 H   0  0  0  0  0  0  0  0  0  0  0  0
   -1.5256    1.3456    1.8973 H   0  0  0  0  0  0  0  0  0  0  0  0
    0.6125   -1.0703   -0.2070 H   0  0  0  0  0  0  0  0  0  0  0  0
   -0.0502    0.4282   -0.8175 H   0  0  0  0  0  0  0  0  0  0  0  0
  1  2  1  0
  1  4  1  0
  1  8  1  0
  1  9  1  0
  2  7  1  0
  2 11  1  0
  2 12  1  0
  3  5  1  0
  3  6  2  0
  3 10  1  0
  4  5  1  0
M  END
