CCOOC=O_4
     RDKit          3D

 12 11  0  0  0  0  0  0  0  0999 V2000
    1.8861    0.8512   -0.1949 C   0  0  0  0  0  0  0  0  0  0  0  0
    1.0068   -0.1809   -0.8547 C   0  0  0  0  0  0  0  0  0  0  0  0
   -0.6689    0.5932    1.8500 C   0  0  0  0  0  0  0  0  0  0  0  0
    1.2329    1.4467    0.8813 O   0  0  0  0  0  0  0  0  0  0  0  0
    0.6558    0.3945    1.7349 O   0  0  0  0  0  0  0  0  0  0  0  0
   -1.5038   -0.1449    2.3038 O   0  0  0  0  0  0  0  0  0  0  0  0
    1.5093   -0.6888   -1.6810 H   0  0  0  0  0  0  0  0  0  0  0  0
    2.1829    1.6534   -0.8837 H   0  0  0  0  0  0  0  0  0  0  0  0
    2.8015    0.4019    0.2143 H   0  0  0  0  0  0  0  0  0  0  0  0
   -1.0208    1.5323    1.4472 H   0  0  0  0  0  0  0  0  0  0  0  0
    0.7008   -0.9321   -0.1227 H   0  0  0  0  0  0  0  0  0  0  0  0
    0.0950    0.2802   -1.2384 H   0  0  0  0  0  0  0  0  0  0  0  0
  1  2  1  0
  1  4  1  0
  1  8  1  0
  1  9  1  0
  2  7  1  0
  2 11  1  0
  2 12  1  0
  3  5  1  0
  3  6  2  0
  3 10  1  0
  4  5  1  0
M  END
