OC(C=C=O)O.[H][H]_17
     RDKit          3D

 12 10  0  0  0  0  0  0  0  0999 V2000
    1.5503    0.8770    1.2444 C   0  0  0  0  0  0  0  0  0  0  0  0
    0.3448    1.7006    0.9201 C   0  0  0  0  0  0  0  0  0  0  0  0
   -0.7091    1.6694    1.7094 C   0  0  0  0  0  0  0  0  0  0  0  0
    2.4538    1.5959    2.0608 O   0  0  0  0  0  0  0  0  0  0  0  0
    1.2021   -0.3763    1.7958 O   0  0  0  0  0  0  0  0  0  0  0  0
   -1.6042    1.5673    2.4535 O   0  0  0  0  0  0  0  0  0  0  0  0
    0.6989   -0.2389    2.6215 H   0  0  0  0  0  0  0  0  0  0  0  0
   -2.9672    1.8317   -0.1821 H   0  0  0  0  0  0  0  0  0  0  0  0
    2.0874    0.6415    0.3083 H   0  0  0  0  0  0  0  0  0  0  0  0
   -2.4299    1.9552   -0.7297 H   0  0  0  0  0  0  0  0  0  0  0  0
    3.1399    0.9900    2.4046 H   0  0  0  0  0  0  0  0  0  0  0  0
    0.4546    2.5324    0.2466 H   0  0  0  0  0  0  0  0  0  0  0  0
  1  2  1  0
  1  4  1  0
  1  5  1  0
  1  9  1  0
  2  3  2  0
  2 12  1  0
  3  6  2  0
  4 11  1  0
  5  7  1  0
  8 10  1  0
M  END
