OC(C=C=O)O.[H][H]_9
     RDKit          3D

 12 10  0  0  0  0  0  0  0  0999 V2000
    0.8197    0.7485    1.3372 C   0  0  0  0  0  0  0  0  0  0  0  0
   -0.1021    1.8166    1.8279 C   0  0  0  0  0  0  0  0  0  0  0  0
   -1.1087    1.5732    2.6424 C   0  0  0  0  0  0  0  0  0  0  0  0
    1.7624    1.2719    0.4207 O   0  0  0  0  0  0  0  0  0  0  0  0
    1.4287    0.0398    2.3950 O   0  0  0  0  0  0  0  0  0  0  0  0
   -1.9981    1.3521    3.3677 O   0  0  0  0  0  0  0  0  0  0  0  0
    1.9826    0.6513    2.9186 H   0  0  0  0  0  0  0  0  0  0  0  0
   -0.3035    2.0466   -1.4217 H   0  0  0  0  0  0  0  0  0  0  0  0
    0.2210   -0.0013    0.7891 H   0  0  0  0  0  0  0  0  0  0  0  0
   -0.9961    1.8330   -1.1418 H   0  0  0  0  0  0  0  0  0  0  0  0
    2.4269    0.5873    0.2073 H   0  0  0  0  0  0  0  0  0  0  0  0
    0.0885    2.8266    1.5108 H   0  0  0  0  0  0  0  0  0  0  0  0
  1  2  1  0
  1  4  1  0
  1  5  1  0
  1  9  1  0
  2  3  2  0
  2 12  1  0
  3  6  2  0
  4 11  1  0
  5  7  1  0
  8 10  1  0
M  END
