OC(C=C=O)O.[H][H]_16
     RDKit          3D

 12 10  0  0  0  0  0  0  0  0999 V2000
    0.5454    1.5452    1.2433 C   0  0  0  0  0  0  0  0  0  0  0  0
    0.2264    1.9950    2.6316 C   0  0  0  0  0  0  0  0  0  0  0  0
   -0.9206    1.7299    3.2231 C   0  0  0  0  0  0  0  0  0  0  0  0
    1.8357    1.9756    0.8532 O   0  0  0  0  0  0  0  0  0  0  0  0
    0.3645    0.1554    1.0763 O   0  0  0  0  0  0  0  0  0  0  0  0
   -1.9382    1.4868    3.7441 O   0  0  0  0  0  0  0  0  0  0  0  0
    0.9807   -0.3246    1.6635 H   0  0  0  0  0  0  0  0  0  0  0  0
    0.3925    0.2486   -1.8103 H   0  0  0  0  0  0  0  0  0  0  0  0
   -0.1739    2.0197    0.5516 H   0  0  0  0  0  0  0  0  0  0  0  0
   -0.1390   -0.2113   -1.4793 H   0  0  0  0  0  0  0  0  0  0  0  0
    2.0716    1.5695   -0.0043 H   0  0  0  0  0  0  0  0  0  0  0  0
    0.9765    2.5559    3.1604 H   0  0  0  0  0  0  0  0  0  0  0  0
  1  2  1  0
  1  4  1  0
  1  5  1  0
  1  9  1  0
  2  3  2  0
  2 12  1  0
  3  6  2  0
  4 11  1  0
  5  7  1  0
  8 10  1  0
M  END
