OC(C=C=O)O.[H][H]_14
     RDKit          3D

 12 10  0  0  0  0  0  0  0  0999 V2000
    1.3073    0.3927    1.5347 C   0  0  0  0  0  0  0  0  0  0  0  0
    0.1886    1.1765    0.9299 C   0  0  0  0  0  0  0  0  0  0  0  0
   -1.0150    1.2331    1.4626 C   0  0  0  0  0  0  0  0  0  0  0  0
    2.4801    0.4913    0.7491 O   0  0  0  0  0  0  0  0  0  0  0  0
    1.5305    0.7336    2.8860 O   0  0  0  0  0  0  0  0  0  0  0  0
   -2.0803    1.2856    1.9405 O   0  0  0  0  0  0  0  0  0  0  0  0
    1.7960    1.6723    2.9442 H   0  0  0  0  0  0  0  0  0  0  0  0
   -2.0020    3.3904   -0.4175 H   0  0  0  0  0  0  0  0  0  0  0  0
    1.0172   -0.6734    1.5458 H   0  0  0  0  0  0  0  0  0  0  0  0
   -2.6197    3.2482    0.0318 H   0  0  0  0  0  0  0  0  0  0  0  0
    3.2280    0.0771    1.2233 H   0  0  0  0  0  0  0  0  0  0  0  0
    0.3909    1.7183    0.0229 H   0  0  0  0  0  0  0  0  0  0  0  0
  1  2  1  0
  1  4  1  0
  1  5  1  0
  1  9  1  0
  2  3  2  0
  2 12  1  0
  3  6  2  0
  4 11  1  0
  5  7  1  0
  8 10  1  0
M  END
