OC(C=C=O)O.[H][H]_4
     RDKit          3D

 12 10  0  0  0  0  0  0  0  0999 V2000
    1.2465    1.3123    1.1200 C   0  0  0  0  0  0  0  0  0  0  0  0
    0.1335    2.2080    1.5643 C   0  0  0  0  0  0  0  0  0  0  0  0
   -0.8304    1.7378    2.3288 C   0  0  0  0  0  0  0  0  0  0  0  0
    2.3240    1.3455    2.0360 O   0  0  0  0  0  0  0  0  0  0  0  0
    0.7970   -0.0018    0.8608 O   0  0  0  0  0  0  0  0  0  0  0  0
   -1.6451    1.2306    2.9955 O   0  0  0  0  0  0  0  0  0  0  0  0
    0.4125   -0.3795    1.6754 H   0  0  0  0  0  0  0  0  0  0  0  0
   -1.4312    1.1805   -0.7944 H   0  0  0  0  0  0  0  0  0  0  0  0
    1.6394    1.6789    0.1546 H   0  0  0  0  0  0  0  0  0  0  0  0
   -1.6635    0.5298   -0.4390 H   0  0  0  0  0  0  0  0  0  0  0  0
    2.9571    0.6307    1.8254 H   0  0  0  0  0  0  0  0  0  0  0  0
    0.2817    3.2729    1.5259 H   0  0  0  0  0  0  0  0  0  0  0  0
  1  2  1  0
  1  4  1  0
  1  5  1  0
  1  9  1  0
  2  3  2  0
  2 12  1  0
  3  6  2  0
  4 11  1  0
  5  7  1  0
  8 10  1  0
M  END
