OC(C=C=O)O.[H][H]_10
     RDKit          3D

 12 10  0  0  0  0  0  0  0  0999 V2000
    1.5070    1.3946    1.6337 C   0  0  0  0  0  0  0  0  0  0  0  0
    0.3465    2.1221    2.2354 C   0  0  0  0  0  0  0  0  0  0  0  0
   -0.8862    1.7693    1.9342 C   0  0  0  0  0  0  0  0  0  0  0  0
    1.8840    0.2884    2.4308 O   0  0  0  0  0  0  0  0  0  0  0  0
    1.2669    1.0354    0.2887 O   0  0  0  0  0  0  0  0  0  0  0  0
   -1.9433    1.3966    1.6043 O   0  0  0  0  0  0  0  0  0  0  0  0
    0.4905    0.4446    0.2445 H   0  0  0  0  0  0  0  0  0  0  0  0
   -2.2152    1.0194   -0.8676 H   0  0  0  0  0  0  0  0  0  0  0  0
    2.3785    2.0729    1.6001 H   0  0  0  0  0  0  0  0  0  0  0  0
   -1.6329    0.7733   -1.3193 H   0  0  0  0  0  0  0  0  0  0  0  0
    2.5185   -0.2704    1.9395 H   0  0  0  0  0  0  0  0  0  0  0  0
    0.5071    2.6995    3.1291 H   0  0  0  0  0  0  0  0  0  0  0  0
  1  2  1  0
  1  4  1  0
  1  5  1  0
  1  9  1  0
  2  3  2  0
  2 12  1  0
  3  6  2  0
  4 11  1  0
  5  7  1  0
  8 10  1  0
M  END
