OC(C=C=O)O.[H][H]_18
     RDKit          3D

 12 10  0  0  0  0  0  0  0  0999 V2000
    1.5590    0.7300    1.2685 C   0  0  0  0  0  0  0  0  0  0  0  0
    0.3420    1.4581    0.7922 C   0  0  0  0  0  0  0  0  0  0  0  0
   -0.6857    1.6283    1.5982 C   0  0  0  0  0  0  0  0  0  0  0  0
    2.4874    1.6200    1.8577 O   0  0  0  0  0  0  0  0  0  0  0  0
    1.2307   -0.3500    2.1180 O   0  0  0  0  0  0  0  0  0  0  0  0
   -1.5533    1.7242    2.3750 O   0  0  0  0  0  0  0  0  0  0  0  0
    0.7544   -0.0131    2.9014 H   0  0  0  0  0  0  0  0  0  0  0  0
   -3.0387    2.2269   -0.0499 H   0  0  0  0  0  0  0  0  0  0  0  0
    2.0663    0.2712    0.4009 H   0  0  0  0  0  0  0  0  0  0  0  0
   -2.5541    2.2392   -0.6571 H   0  0  0  0  0  0  0  0  0  0  0  0
    3.1857    1.1115    2.3159 H   0  0  0  0  0  0  0  0  0  0  0  0
    0.4278    2.0994   -0.0675 H   0  0  0  0  0  0  0  0  0  0  0  0
  1  2  1  0
  1  4  1  0
  1  5  1  0
  1  9  1  0
  2  3  2  0
  2 12  1  0
  3  6  2  0
  4 11  1  0
  5  7  1  0
  8 10  1  0
M  END
