OC(C=C=O)O.[H][H]_13
     RDKit          3D

 12 10  0  0  0  0  0  0  0  0999 V2000
    1.3200    0.5682    1.4191 C   0  0  0  0  0  0  0  0  0  0  0  0
    0.2547    1.6027    1.2567 C   0  0  0  0  0  0  0  0  0  0  0  0
   -0.9821    1.4278    1.6755 C   0  0  0  0  0  0  0  0  0  0  0  0
    2.5475    1.0121    0.8728 O   0  0  0  0  0  0  0  0  0  0  0  0
    1.4475    0.1363    2.7569 O   0  0  0  0  0  0  0  0  0  0  0  0
   -2.0776    1.2700    2.0509 O   0  0  0  0  0  0  0  0  0  0  0  0
    1.7153    0.8908    3.3172 H   0  0  0  0  0  0  0  0  0  0  0  0
   -2.0765    2.7399   -0.7914 H   0  0  0  0  0  0  0  0  0  0  0  0
    1.0210   -0.3298    0.8488 H   0  0  0  0  0  0  0  0  0  0  0  0
   -2.7272    2.5253   -0.4252 H   0  0  0  0  0  0  0  0  0  0  0  0
    3.2556    0.3771    1.0989 H   0  0  0  0  0  0  0  0  0  0  0  0
    0.5232    2.5253    0.7731 H   0  0  0  0  0  0  0  0  0  0  0  0
  1  2  1  0
  1  4  1  0
  1  5  1  0
  1  9  1  0
  2  3  2  0
  2 12  1  0
  3  6  2  0
  4 11  1  0
  5  7  1  0
  8 10  1  0
M  END
