OC(C=C=O)O.[H][H]_0
     RDKit          3D

 12 10  0  0  0  0  0  0  0  0999 V2000
    0.9419    0.4133    1.6084 C   0  0  0  0  0  0  0  0  0  0  0  0
   -0.4597    0.5765    2.1054 C   0  0  0  0  0  0  0  0  0  0  0  0
   -0.9975    1.7762    2.1847 C   0  0  0  0  0  0  0  0  0  0  0  0
    0.9692    0.2586    0.2025 O   0  0  0  0  0  0  0  0  0  0  0  0
    1.7862    1.4542    2.0553 O   0  0  0  0  0  0  0  0  0  0  0  0
   -1.3873    2.8769    2.2279 O   0  0  0  0  0  0  0  0  0  0  0  0
    1.4474    2.3100    1.7284 H   0  0  0  0  0  0  0  0  0  0  0  0
    0.2603    2.8762   -0.6533 H   0  0  0  0  0  0  0  0  0  0  0  0
    1.3706   -0.5103    2.0372 H   0  0  0  0  0  0  0  0  0  0  0  0
   -0.4836    2.6556   -0.6135 H   0  0  0  0  0  0  0  0  0  0  0  0
    1.8895    0.3347   -0.1191 H   0  0  0  0  0  0  0  0  0  0  0  0
   -1.1155   -0.2763    2.0893 H   0  0  0  0  0  0  0  0  0  0  0  0
  1  2  1  0
  1  4  1  0
  1  5  1  0
  1  9  1  0
  2  3  2  0
  2 12  1  0
  3  6  2  0
  4 11  1  0
  5  7  1  0
  8 10  1  0
M  END
