OC(C=C=O)O.[H][H]_5
     RDKit          3D

 12 10  0  0  0  0  0  0  0  0999 V2000
    1.2052    1.0416    1.2316 C   0  0  0  0  0  0  0  0  0  0  0  0
    0.2618    2.0211    1.8498 C   0  0  0  0  0  0  0  0  0  0  0  0
   -1.0212    1.7717    2.0159 C   0  0  0  0  0  0  0  0  0  0  0  0
    2.5194    1.5637    1.1813 O   0  0  0  0  0  0  0  0  0  0  0  0
    1.1485   -0.2233    1.8553 O   0  0  0  0  0  0  0  0  0  0  0  0
   -2.1576    1.5409    2.1619 O   0  0  0  0  0  0  0  0  0  0  0  0
    1.4213   -0.1367    2.7897 H   0  0  0  0  0  0  0  0  0  0  0  0
   -1.5961    1.3229   -0.9277 H   0  0  0  0  0  0  0  0  0  0  0  0
    0.8895    0.8670    0.1872 H   0  0  0  0  0  0  0  0  0  0  0  0
   -2.2486    1.1424   -0.5468 H   0  0  0  0  0  0  0  0  0  0  0  0
    3.1386    0.8653    0.8905 H   0  0  0  0  0  0  0  0  0  0  0  0
    0.6606    2.9691    2.1647 H   0  0  0  0  0  0  0  0  0  0  0  0
  1  2  1  0
  1  4  1  0
  1  5  1  0
  1  9  1  0
  2  3  2  0
  2 12  1  0
  3  6  2  0
  4 11  1  0
  5  7  1  0
  8 10  1  0
M  END
