OC(C=C=O)O.[H][H]_19
     RDKit          3D

 12 10  0  0  0  0  0  0  0  0999 V2000
    1.5371    0.6077    1.3061 C   0  0  0  0  0  0  0  0  0  0  0  0
    0.2901    1.2186    0.7494 C   0  0  0  0  0  0  0  0  0  0  0  0
   -0.6937    1.5665    1.5531 C   0  0  0  0  0  0  0  0  0  0  0  0
    2.4892    1.6013    1.6337 O   0  0  0  0  0  0  0  0  0  0  0  0
    1.2644   -0.2583    2.3885 O   0  0  0  0  0  0  0  0  0  0  0  0
   -1.5191    1.8368    2.3347 O   0  0  0  0  0  0  0  0  0  0  0  0
    0.8296    0.2444    3.1044 H   0  0  0  0  0  0  0  0  0  0  0  0
   -2.5580    2.4533   -0.6532 H   0  0  0  0  0  0  0  0  0  0  0  0
    1.9999   -0.0325    0.5337 H   0  0  0  0  0  0  0  0  0  0  0  0
   -2.9575    2.6502   -0.0166 H   0  0  0  0  0  0  0  0  0  0  0  0
    3.2156    1.2027    2.1530 H   0  0  0  0  0  0  0  0  0  0  0  0
    0.3239    1.6549   -0.2336 H   0  0  0  0  0  0  0  0  0  0  0  0
  1  2  1  0
  1  4  1  0
  1  5  1  0
  1  9  1  0
  2  3  2  0
  2 12  1  0
  3  6  2  0
  4 11  1  0
  5  7  1  0
  8 10  1  0
M  END
