OC(C=C=O)O.[H][H]_6
     RDKit          3D

 12 10  0  0  0  0  0  0  0  0999 V2000
    1.1800    0.9426    1.2524 C   0  0  0  0  0  0  0  0  0  0  0  0
    0.2282    1.9735    1.7652 C   0  0  0  0  0  0  0  0  0  0  0  0
   -1.0333    1.7092    2.0384 C   0  0  0  0  0  0  0  0  0  0  0  0
    2.4616    1.4997    1.0302 O   0  0  0  0  0  0  0  0  0  0  0  0
    1.2228   -0.2032    2.0756 O   0  0  0  0  0  0  0  0  0  0  0  0
   -2.1509    1.4669    2.2795 O   0  0  0  0  0  0  0  0  0  0  0  0
    1.5476    0.0469    2.9627 H   0  0  0  0  0  0  0  0  0  0  0  0
   -1.5275    1.5748   -0.9291 H   0  0  0  0  0  0  0  0  0  0  0  0
    0.8112    0.5859    0.2738 H   0  0  0  0  0  0  0  0  0  0  0  0
   -2.2164    1.3906   -0.6206 H   0  0  0  0  0  0  0  0  0  0  0  0
    3.0957    0.7874    0.8147 H   0  0  0  0  0  0  0  0  0  0  0  0
    0.6023    2.9714    1.9103 H   0  0  0  0  0  0  0  0  0  0  0  0
  1  2  1  0
  1  4  1  0
  1  5  1  0
  1  9  1  0
  2  3  2  0
  2 12  1  0
  3  6  2  0
  4 11  1  0
  5  7  1  0
  8 10  1  0
M  END
