OC(C=C=O)O.[H][H]
     RDKit          3D

 12 10  0  0  0  0  0  0  0  0999 V2000
    0.9070    0.9282    1.4610 C   0  0  0  0  0  0  0  0  0  0  0  0
   -0.0814    1.9851    1.8442 C   0  0  0  0  0  0  0  0  0  0  0  0
   -1.1379    1.6867    2.5511 C   0  0  0  0  0  0  0  0  0  0  0  0
    1.8909    1.4963    0.6385 O   0  0  0  0  0  0  0  0  0  0  0  0
    1.5021    0.4082    2.6204 O   0  0  0  0  0  0  0  0  0  0  0  0
   -2.1392    1.4037    3.2210 O   0  0  0  0  0  0  0  0  0  0  0  0
    1.9733   -0.4218    2.3479 H   0  0  0  0  0  0  0  0  0  0  0  0
   -0.4747    1.8915   -1.3387 H   0  0  0  0  0  0  0  0  0  0  0  0
    0.3652    0.1233    0.9070 H   0  0  0  0  0  0  0  0  0  0  0  0
   -1.0296    1.4987   -1.1411 H   0  0  0  0  0  0  0  0  0  0  0  0
    2.3938    0.7409    0.2361 H   0  0  0  0  0  0  0  0  0  0  0  0
    0.0520    3.0049    1.5058 H   0  0  0  0  0  0  0  0  0  0  0  0
  1  2  1  0
  1  4  1  0
  1  5  1  0
  1  9  1  0
  2  3  2  0
  2 12  1  0
  3  6  2  0
  4 11  1  0
  5  7  1  0
  8 10  1  0
M  END
