OC(C=C=O)O.[H][H]_15
     RDKit          3D

 12 10  0  0  0  0  0  0  0  0999 V2000
    1.3405    0.4799    1.4678 C   0  0  0  0  0  0  0  0  0  0  0  0
    0.2584    1.4384    1.0915 C   0  0  0  0  0  0  0  0  0  0  0  0
   -0.9762    1.3352    1.5398 C   0  0  0  0  0  0  0  0  0  0  0  0
    2.5601    0.8152    0.8333 O   0  0  0  0  0  0  0  0  0  0  0  0
    1.4764    0.3479    2.8665 O   0  0  0  0  0  0  0  0  0  0  0  0
   -2.0695    1.2433    1.9425 O   0  0  0  0  0  0  0  0  0  0  0  0
    1.7328    1.2092    3.2503 H   0  0  0  0  0  0  0  0  0  0  0  0
   -2.1618    3.0562   -0.6340 H   0  0  0  0  0  0  0  0  0  0  0  0
    1.0557   -0.5243    1.1053 H   0  0  0  0  0  0  0  0  0  0  0  0
   -2.7870    2.8453   -0.2238 H   0  0  0  0  0  0  0  0  0  0  0  0
    3.2787    0.2547    1.1872 H   0  0  0  0  0  0  0  0  0  0  0  0
    0.5133    2.2446    0.4267 H   0  0  0  0  0  0  0  0  0  0  0  0
  1  2  1  0
  1  4  1  0
  1  5  1  0
  1  9  1  0
  2  3  2  0
  2 12  1  0
  3  6  2  0
  4 11  1  0
  5  7  1  0
  8 10  1  0
M  END
