OC(C=C=O)O.[H][H]_11
     RDKit          3D

 12 10  0  0  0  0  0  0  0  0999 V2000
    0.6464    0.5908    1.2689 C   0  0  0  0  0  0  0  0  0  0  0  0
   -0.6207    1.2318    1.7397 C   0  0  0  0  0  0  0  0  0  0  0  0
   -0.6726    1.7995    2.9271 C   0  0  0  0  0  0  0  0  0  0  0  0
    1.4756    1.5260    0.6063 O   0  0  0  0  0  0  0  0  0  0  0  0
    1.3181   -0.0818    2.3141 O   0  0  0  0  0  0  0  0  0  0  0  0
   -0.6292    2.2681    3.9966 O   0  0  0  0  0  0  0  0  0  0  0  0
    1.5464    0.5574    3.0166 H   0  0  0  0  0  0  0  0  0  0  0  0
   -0.3419    1.9015   -1.6094 H   0  0  0  0  0  0  0  0  0  0  0  0
    0.4006   -0.1940    0.5312 H   0  0  0  0  0  0  0  0  0  0  0  0
    0.1035    2.5080   -1.4159 H   0  0  0  0  0  0  0  0  0  0  0  0
    2.3620    1.1380    0.4656 H   0  0  0  0  0  0  0  0  0  0  0  0
   -1.3666    1.5004    1.0124 H   0  0  0  0  0  0  0  0  0  0  0  0
  1  2  1  0
  1  4  1  0
  1  5  1  0
  1  9  1  0
  2  3  2  0
  2 12  1  0
  3  6  2  0
  4 11  1  0
  5  7  1  0
  8 10  1  0
M  END
