OC(C=C=O)O.[H][H]_7
     RDKit          3D

 12 10  0  0  0  0  0  0  0  0999 V2000
    1.1333    0.8505    1.2755 C   0  0  0  0  0  0  0  0  0  0  0  0
    0.1794    1.9186    1.7007 C   0  0  0  0  0  0  0  0  0  0  0  0
   -1.0505    1.6621    2.0974 C   0  0  0  0  0  0  0  0  0  0  0  0
    2.3702    1.4055    0.8700 O   0  0  0  0  0  0  0  0  0  0  0  0
    1.2857   -0.1527    2.2565 O   0  0  0  0  0  0  0  0  0  0  0  0
   -2.1401    1.4279    2.4492 O   0  0  0  0  0  0  0  0  0  0  0  0
    1.6654    0.2407    3.0665 H   0  0  0  0  0  0  0  0  0  0  0  0
   -2.0961    1.6429   -0.6985 H   0  0  0  0  0  0  0  0  0  0  0  0
    0.7083    0.3363    0.3947 H   0  0  0  0  0  0  0  0  0  0  0  0
   -1.3745    1.7887   -0.9467 H   0  0  0  0  0  0  0  0  0  0  0  0
    3.0159    0.6882    0.7140 H   0  0  0  0  0  0  0  0  0  0  0  0
    0.5244    2.9370    1.6738 H   0  0  0  0  0  0  0  0  0  0  0  0
  1  2  1  0
  1  4  1  0
  1  5  1  0
  1  9  1  0
  2  3  2  0
  2 12  1  0
  3  6  2  0
  4 11  1  0
  5  7  1  0
  8 10  1  0
M  END
