C/C=C(/OO)\O
     RDKit          3D

 12 11  0  0  0  0  0  0  0  0999 V2000
   -0.4658    0.5597   -1.0013 C   0  0  0  0  0  0  0  0  0  0  0  0
    0.5909    0.2294    0.0060 C   0  0  0  0  0  0  0  0  0  0  0  0
    0.3431    0.2493    1.3222 C   0  0  0  0  0  0  0  0  0  0  0  0
    1.3375   -0.0611    2.2559 O   0  0  0  0  0  0  0  0  0  0  0  0
    2.5827   -0.3926    1.8852 O   0  0  0  0  0  0  0  0  0  0  0  0
   -0.9270    0.5843    1.7845 O   0  0  0  0  0  0  0  0  0  0  0  0
    3.0600   -0.5566    2.7372 H   0  0  0  0  0  0  0  0  0  0  0  0
   -1.3147   -0.1503   -0.9086 H   0  0  0  0  0  0  0  0  0  0  0  0
   -0.8302    1.5969   -0.8438 H   0  0  0  0  0  0  0  0  0  0  0  0
   -1.1264    0.6028    2.7772 H   0  0  0  0  0  0  0  0  0  0  0  0
   -0.0450    0.4810   -2.0256 H   0  0  0  0  0  0  0  0  0  0  0  0
    1.5766   -0.0304   -0.3588 H   0  0  0  0  0  0  0  0  0  0  0  0
  1  2  1  0
  1  8  1  0
  1  9  1  0
  1 11  1  0
  2  3  2  0
  2 12  1  0
  3  4  1  0
  3  6  1  0
  4  5  1  0
  5  7  1  0
  6 10  1  0
M  END
