C/C=C(/OO)\O_0
     RDKit          3D

 12 11  0  0  0  0  0  0  0  0999 V2000
   -0.6624    0.4756   -1.0158 C   0  0  0  0  0  0  0  0  0  0  0  0
    0.5947    0.0938   -0.3470 C   0  0  0  0  0  0  0  0  0  0  0  0
    0.7632    0.2624    0.9850 C   0  0  0  0  0  0  0  0  0  0  0  0
    1.9358   -0.0584    1.6124 O   0  0  0  0  0  0  0  0  0  0  0  0
    1.7722    0.0762    3.0514 O   0  0  0  0  0  0  0  0  0  0  0  0
   -0.2247    0.7643    1.7686 O   0  0  0  0  0  0  0  0  0  0  0  0
    2.0306   -0.7971    3.3898 H   0  0  0  0  0  0  0  0  0  0  0  0
   -0.8006   -0.0535   -1.9616 H   0  0  0  0  0  0  0  0  0  0  0  0
   -1.5166    0.2471   -0.3746 H   0  0  0  0  0  0  0  0  0  0  0  0
    0.1536    0.8373    2.6702 H   0  0  0  0  0  0  0  0  0  0  0  0
   -0.6822    1.5484   -1.2185 H   0  0  0  0  0  0  0  0  0  0  0  0
    1.4181   -0.2837   -0.9299 H   0  0  0  0  0  0  0  0  0  0  0  0
  1  2  1  0
  1  8  1  0
  1  9  1  0
  1 11  1  0
  2  3  2  0
  2 12  1  0
  3  4  1  0
  3  6  1  0
  4  5  1  0
  5  7  1  0
  6 10  1  0
M  END
