CCN=C
     RDKit          3D

 11 10  0  0  0  0  0  0  0  0999 V2000
   -0.8579    1.0484    0.1591 C   0  0  0  0  0  0  0  0  0  0  0  0
    0.3064    0.8513    0.6665 N   0  0  0  0  0  0  0  0  0  0  0  0
    2.1116   -0.3453    1.7599 C   0  0  0  0  0  0  0  0  0  0  0  0
    0.6817   -0.4180    1.2450 C   0  0  0  0  0  0  0  0  0  0  0  0
    2.8069   -0.1126    0.9254 H   0  0  0  0  0  0  0  0  0  0  0  0
    2.3988   -1.3216    2.2043 H   0  0  0  0  0  0  0  0  0  0  0  0
   -1.6066    0.2605    0.1474 H   0  0  0  0  0  0  0  0  0  0  0  0
   -1.1018    2.0157   -0.2659 H   0  0  0  0  0  0  0  0  0  0  0  0
    2.1978    0.4424    2.5385 H   0  0  0  0  0  0  0  0  0  0  0  0
    0.6102   -1.2186    0.4763 H   0  0  0  0  0  0  0  0  0  0  0  0
    0.0010   -0.6635    2.0896 H   0  0  0  0  0  0  0  0  0  0  0  0
  1  2  2  0
  1  7  1  0
  1  8  1  0
  2  4  1  0
  3  4  1  0
  3  5  1  0
  3  6  1  0
  3  9  1  0
  4 10  1  0
  4 11  1  0
M  END
