CCC=N
     RDKit          3D

 11 10  0  0  0  0  0  0  0  0999 V2000
   -0.7200   -0.0195    0.6225 C   0  0  0  0  0  0  0  0  0  0  0  0
    1.3481    1.2455    2.4754 N   0  0  0  0  0  0  0  0  0  0  0  0
    0.7934    0.0536    0.4457 C   0  0  0  0  0  0  0  0  0  0  0  0
    1.4879    0.1835    1.7685 C   0  0  0  0  0  0  0  0  0  0  0  0
    1.0542    0.9211   -0.1981 H   0  0  0  0  0  0  0  0  0  0  0  0
    1.8334    1.3409    3.3791 H   0  0  0  0  0  0  0  0  0  0  0  0
   -1.1018    0.9143    1.0879 H   0  0  0  0  0  0  0  0  0  0  0  0
   -0.9917   -0.8865    1.2621 H   0  0  0  0  0  0  0  0  0  0  0  0
    1.1432   -0.8722   -0.0593 H   0  0  0  0  0  0  0  0  0  0  0  0
   -1.2039   -0.1437   -0.3691 H   0  0  0  0  0  0  0  0  0  0  0  0
    2.1324   -0.6188    2.1171 H   0  0  0  0  0  0  0  0  0  0  0  0
  1  3  1  0
  1  7  1  0
  1  8  1  0
  1 10  1  0
  2  4  2  0
  2  6  1  0
  3  4  1  0
  3  5  1  0
  3  9  1  0
  4 11  1  0
M  END
