C1COOC1=O.[H][H]_4
     RDKit          3D

 12 11  0  0  0  0  0  0  0  0999 V2000
    0.5554    0.3348    0.1730 C   0  0  0  0  0  0  0  0  0  0  0  0
    1.3477    1.0170    1.2821 C   0  0  0  0  0  0  0  0  0  0  0  0
    0.3187    1.3955    2.3033 C   0  0  0  0  0  0  0  0  0  0  0  0
   -0.7997    0.5718    0.4478 O   0  0  0  0  0  0  0  0  0  0  0  0
   -0.9216    1.1486    1.8062 O   0  0  0  0  0  0  0  0  0  0  0  0
    0.6058    1.8337    3.3908 O   0  0  0  0  0  0  0  0  0  0  0  0
   -3.7412    1.3962    0.2350 H   0  0  0  0  0  0  0  0  0  0  0  0
    0.7708    0.7312   -0.8288 H   0  0  0  0  0  0  0  0  0  0  0  0
    0.6896   -0.7555    0.1644 H   0  0  0  0  0  0  0  0  0  0  0  0
   -3.1498    1.3156    0.7323 H   0  0  0  0  0  0  0  0  0  0  0  0
    1.8461    1.9243    0.9225 H   0  0  0  0  0  0  0  0  0  0  0  0
    2.1088    0.3672    1.7290 H   0  0  0  0  0  0  0  0  0  0  0  0
  1  2  1  0
  1  4  1  0
  1  8  1  0
  1  9  1  0
  2  3  1  0
  2 11  1  0
  2 12  1  0
  3  5  1  0
  3  6  2  0
  4  5  1  0
  7 10  1  0
M  END
