C1COOC1=O.[H][H]_12
     RDKit          3D

 12 11  0  0  0  0  0  0  0  0999 V2000
   -0.1262    0.1042    0.5257 C   0  0  0  0  0  0  0  0  0  0  0  0
    0.0553    1.2811    1.4771 C   0  0  0  0  0  0  0  0  0  0  0  0
    0.7539    0.6994    2.6681 C   0  0  0  0  0  0  0  0  0  0  0  0
    0.1963   -1.0506    1.2543 O   0  0  0  0  0  0  0  0  0  0  0  0
    0.8170   -0.6518    2.5381 O   0  0  0  0  0  0  0  0  0  0  0  0
    1.1865    1.3769    3.5687 O   0  0  0  0  0  0  0  0  0  0  0  0
   -1.4095    3.0822   -1.0066 H   0  0  0  0  0  0  0  0  0  0  0  0
   -1.1546   -0.0072    0.1553 H   0  0  0  0  0  0  0  0  0  0  0  0
    0.5618    0.1401   -0.3299 H   0  0  0  0  0  0  0  0  0  0  0  0
   -0.9909    2.5152   -1.3336 H   0  0  0  0  0  0  0  0  0  0  0  0
   -0.9082    1.6958    1.7942 H   0  0  0  0  0  0  0  0  0  0  0  0
    0.6492    2.0952    1.0461 H   0  0  0  0  0  0  0  0  0  0  0  0
  1  2  1  0
  1  4  1  0
  1  8  1  0
  1  9  1  0
  2  3  1  0
  2 11  1  0
  2 12  1  0
  3  5  1  0
  3  6  2  0
  4  5  1  0
  7 10  1  0
M  END
