C1COOC1=O.[H][H]
     RDKit          3D

 12 11  0  0  0  0  0  0  0  0999 V2000
    0.3704    0.0988    0.2875 C   0  0  0  0  0  0  0  0  0  0  0  0
    0.9186    1.2609    1.1274 C   0  0  0  0  0  0  0  0  0  0  0  0
    0.1204    1.0997    2.3278 C   0  0  0  0  0  0  0  0  0  0  0  0
   -0.6265   -0.6063    1.0190 O   0  0  0  0  0  0  0  0  0  0  0  0
   -0.7249    0.0340    2.1972 O   0  0  0  0  0  0  0  0  0  0  0  0
    0.1820    1.8276    3.3526 O   0  0  0  0  0  0  0  0  0  0  0  0
   -2.4042    1.8508    0.3299 H   0  0  0  0  0  0  0  0  0  0  0  0
   -0.0754    0.4866   -0.6534 H   0  0  0  0  0  0  0  0  0  0  0  0
    1.1919   -0.6012    0.0239 H   0  0  0  0  0  0  0  0  0  0  0  0
   -2.0373    2.4560    0.3426 H   0  0  0  0  0  0  0  0  0  0  0  0
    0.7170    2.2436    0.6497 H   0  0  0  0  0  0  0  0  0  0  0  0
    1.9986    1.1299    1.3534 H   0  0  0  0  0  0  0  0  0  0  0  0
  1  2  1  0
  1  4  1  0
  1  8  1  0
  1  9  1  0
  2  3  1  0
  2 11  1  0
  2 12  1  0
  3  5  1  0
  3  6  2  0
  4  5  1  0
  7 10  1  0
M  END
