C1COOC1=O.[H][H]_16
     RDKit          3D

 12 11  0  0  0  0  0  0  0  0999 V2000
   -0.4437    0.8094    0.8683 C   0  0  0  0  0  0  0  0  0  0  0  0
    0.7663    1.4251    1.5604 C   0  0  0  0  0  0  0  0  0  0  0  0
    1.0860    0.4767    2.6754 C   0  0  0  0  0  0  0  0  0  0  0  0
   -0.8991   -0.2216    1.7038 O   0  0  0  0  0  0  0  0  0  0  0  0
    0.1086   -0.4637    2.7612 O   0  0  0  0  0  0  0  0  0  0  0  0
    2.0813    0.5728    3.3516 O   0  0  0  0  0  0  0  0  0  0  0  0
   -2.1732    1.1815   -1.9856 H   0  0  0  0  0  0  0  0  0  0  0  0
   -1.2724    1.5156    0.7218 H   0  0  0  0  0  0  0  0  0  0  0  0
   -0.1905    0.3458   -0.0948 H   0  0  0  0  0  0  0  0  0  0  0  0
   -1.5949    1.6910   -2.0830 H   0  0  0  0  0  0  0  0  0  0  0  0
    0.5320    2.4087    1.9828 H   0  0  0  0  0  0  0  0  0  0  0  0
    1.6302    1.5392    0.8957 H   0  0  0  0  0  0  0  0  0  0  0  0
  1  2  1  0
  1  4  1  0
  1  8  1  0
  1  9  1  0
  2  3  1  0
  2 11  1  0
  2 12  1  0
  3  5  1  0
  3  6  2  0
  4  5  1  0
  7 10  1  0
M  END
