C1COOC1=O.[H][H]_7
     RDKit          3D

 12 11  0  0  0  0  0  0  0  0999 V2000
    0.1014    0.9029    0.3787 C   0  0  0  0  0  0  0  0  0  0  0  0
    1.2594    1.0830    1.3530 C   0  0  0  0  0  0  0  0  0  0  0  0
    0.6248    1.0214    2.7089 C   0  0  0  0  0  0  0  0  0  0  0  0
   -1.0755    1.0158    1.1341 O   0  0  0  0  0  0  0  0  0  0  0  0
   -0.7271    0.9987    2.5730 O   0  0  0  0  0  0  0  0  0  0  0  0
    1.2661    0.9848    3.7309 O   0  0  0  0  0  0  0  0  0  0  0  0
   -3.0374    0.7194   -0.4066 H   0  0  0  0  0  0  0  0  0  0  0  0
    0.0695    1.6650   -0.4120 H   0  0  0  0  0  0  0  0  0  0  0  0
    0.0861   -0.0940   -0.0825 H   0  0  0  0  0  0  0  0  0  0  0  0
   -2.7087    0.6172   -1.1030 H   0  0  0  0  0  0  0  0  0  0  0  0
    1.7435    2.0581    1.2281 H   0  0  0  0  0  0  0  0  0  0  0  0
    2.0285    0.3082    1.2552 H   0  0  0  0  0  0  0  0  0  0  0  0
  1  2  1  0
  1  4  1  0
  1  8  1  0
  1  9  1  0
  2  3  1  0
  2 11  1  0
  2 12  1  0
  3  5  1  0
  3  6  2  0
  4  5  1  0
  7 10  1  0
M  END
