C1COOC1=O.[H][H]_0
     RDKit          3D

 12 11  0  0  0  0  0  0  0  0999 V2000
    0.4091    0.1287    0.2200 C   0  0  0  0  0  0  0  0  0  0  0  0
    0.9230    1.2531    1.1115 C   0  0  0  0  0  0  0  0  0  0  0  0
    0.0901    1.1610    2.3536 C   0  0  0  0  0  0  0  0  0  0  0  0
   -0.7677   -0.3477    0.8172 O   0  0  0  0  0  0  0  0  0  0  0  0
   -0.8947    0.2430    2.1691 O   0  0  0  0  0  0  0  0  0  0  0  0
    0.3141    1.8163    3.3423 O   0  0  0  0  0  0  0  0  0  0  0  0
   -2.0424    2.1945    0.2494 H   0  0  0  0  0  0  0  0  0  0  0  0
    0.1617    0.4546   -0.7997 H   0  0  0  0  0  0  0  0  0  0  0  0
    1.1026   -0.7216    0.1668 H   0  0  0  0  0  0  0  0  0  0  0  0
   -2.4233    1.7080    0.7205 H   0  0  0  0  0  0  0  0  0  0  0  0
    0.7715    2.2355    0.6502 H   0  0  0  0  0  0  0  0  0  0  0  0
    1.9867    1.1550    1.3568 H   0  0  0  0  0  0  0  0  0  0  0  0
  1  2  1  0
  1  4  1  0
  1  8  1  0
  1  9  1  0
  2  3  1  0
  2 11  1  0
  2 12  1  0
  3  5  1  0
  3  6  2  0
  4  5  1  0
  7 10  1  0
M  END
