C1COOC1=O.[H][H]_9
     RDKit          3D

 12 11  0  0  0  0  0  0  0  0999 V2000
   -0.1771    0.0908    0.5660 C   0  0  0  0  0  0  0  0  0  0  0  0
    0.1124    1.2845    1.4684 C   0  0  0  0  0  0  0  0  0  0  0  0
    0.7287    0.6886    2.6972 C   0  0  0  0  0  0  0  0  0  0  0  0
    0.4696   -1.0121    1.1438 O   0  0  0  0  0  0  0  0  0  0  0  0
    0.9460   -0.6374    2.4948 O   0  0  0  0  0  0  0  0  0  0  0  0
    0.9614    1.3330    3.6911 O   0  0  0  0  0  0  0  0  0  0  0  0
   -1.2827    2.5499   -0.9914 H   0  0  0  0  0  0  0  0  0  0  0  0
   -1.2462   -0.1578    0.5208 H   0  0  0  0  0  0  0  0  0  0  0  0
    0.2076    0.2090   -0.4563 H   0  0  0  0  0  0  0  0  0  0  0  0
   -1.1298    3.1033   -1.5146 H   0  0  0  0  0  0  0  0  0  0  0  0
   -0.7869    1.8537    1.7301 H   0  0  0  0  0  0  0  0  0  0  0  0
    0.8277    1.9749    1.0075 H   0  0  0  0  0  0  0  0  0  0  0  0
  1  2  1  0
  1  4  1  0
  1  8  1  0
  1  9  1  0
  2  3  1  0
  2 11  1  0
  2 12  1  0
  3  5  1  0
  3  6  2  0
  4  5  1  0
  7 10  1  0
M  END
