C1COOC1=O.[H][H]_8
     RDKit          3D

 12 11  0  0  0  0  0  0  0  0999 V2000
    0.9468   -0.1866    0.2309 C   0  0  0  0  0  0  0  0  0  0  0  0
    1.1858    0.9896    1.1703 C   0  0  0  0  0  0  0  0  0  0  0  0
   -0.1593    1.6322    1.3198 C   0  0  0  0  0  0  0  0  0  0  0  0
   -0.4443   -0.3254    0.1123 O   0  0  0  0  0  0  0  0  0  0  0  0
   -1.0989    0.8565    0.7180 O   0  0  0  0  0  0  0  0  0  0  0  0
   -0.3228    2.6860    1.8855 O   0  0  0  0  0  0  0  0  0  0  0  0
   -2.9716    2.2537    1.8868 H   0  0  0  0  0  0  0  0  0  0  0  0
    1.3334   -0.0065   -0.7815 H   0  0  0  0  0  0  0  0  0  0  0  0
    1.3500   -1.1375    0.6054 H   0  0  0  0  0  0  0  0  0  0  0  0
   -3.6359    2.1514    2.2761 H   0  0  0  0  0  0  0  0  0  0  0  0
    1.9129    1.7110    0.7801 H   0  0  0  0  0  0  0  0  0  0  0  0
    1.5346    0.6558    2.1540 H   0  0  0  0  0  0  0  0  0  0  0  0
  1  2  1  0
  1  4  1  0
  1  8  1  0
  1  9  1  0
  2  3  1  0
  2 11  1  0
  2 12  1  0
  3  5  1  0
  3  6  2  0
  4  5  1  0
  7 10  1  0
M  END
