C1COOC1=O.[H][H]_13
     RDKit          3D

 12 11  0  0  0  0  0  0  0  0999 V2000
   -0.1241    0.0886    0.5267 C   0  0  0  0  0  0  0  0  0  0  0  0
    0.0957    1.2824    1.4484 C   0  0  0  0  0  0  0  0  0  0  0  0
    0.7313    0.7011    2.6744 C   0  0  0  0  0  0  0  0  0  0  0  0
    0.1202   -1.0591    1.2958 O   0  0  0  0  0  0  0  0  0  0  0  0
    0.7270   -0.6548    2.5844 O   0  0  0  0  0  0  0  0  0  0  0  0
    1.1749    1.3818    3.5671 O   0  0  0  0  0  0  0  0  0  0  0  0
   -0.9972    2.5205   -1.2599 H   0  0  0  0  0  0  0  0  0  0  0  0
   -1.1477    0.0192    0.1337 H   0  0  0  0  0  0  0  0  0  0  0  0
    0.5850    0.0637   -0.3120 H   0  0  0  0  0  0  0  0  0  0  0  0
   -1.4259    3.1293   -1.0385 H   0  0  0  0  0  0  0  0  0  0  0  0
   -0.8519    1.7570    1.7270 H   0  0  0  0  0  0  0  0  0  0  0  0
    0.7433    2.0506    1.0104 H   0  0  0  0  0  0  0  0  0  0  0  0
  1  2  1  0
  1  4  1  0
  1  8  1  0
  1  9  1  0
  2  3  1  0
  2 11  1  0
  2 12  1  0
  3  5  1  0
  3  6  2  0
  4  5  1  0
  7 10  1  0
M  END
