C1COOC1=O.[H][H]_11
     RDKit          3D

 12 11  0  0  0  0  0  0  0  0999 V2000
   -0.2124    0.1555    0.5679 C   0  0  0  0  0  0  0  0  0  0  0  0
    0.0613    1.3023    1.5339 C   0  0  0  0  0  0  0  0  0  0  0  0
    0.8291    0.6751    2.6573 C   0  0  0  0  0  0  0  0  0  0  0  0
    0.1419   -1.0246    1.2390 O   0  0  0  0  0  0  0  0  0  0  0  0
    0.8574   -0.6728    2.4866 O   0  0  0  0  0  0  0  0  0  0  0  0
    1.3356    1.3191    3.5438 O   0  0  0  0  0  0  0  0  0  0  0  0
   -1.2837    2.7137   -0.9456 H   0  0  0  0  0  0  0  0  0  0  0  0
   -1.2676    0.0716    0.2733 H   0  0  0  0  0  0  0  0  0  0  0  0
    0.4101    0.2038   -0.3359 H   0  0  0  0  0  0  0  0  0  0  0  0
   -1.0145    2.6929   -1.6740 H   0  0  0  0  0  0  0  0  0  0  0  0
   -0.8679    1.7283    1.9287 H   0  0  0  0  0  0  0  0  0  0  0  0
    0.6415    2.1154    1.0827 H   0  0  0  0  0  0  0  0  0  0  0  0
  1  2  1  0
  1  4  1  0
  1  8  1  0
  1  9  1  0
  2  3  1  0
  2 11  1  0
  2 12  1  0
  3  5  1  0
  3  6  2  0
  4  5  1  0
  7 10  1  0
M  END
