C1COOC1=O.[H][H]_1
     RDKit          3D

 12 11  0  0  0  0  0  0  0  0999 V2000
    0.8731   -0.2884    0.3665 C   0  0  0  0  0  0  0  0  0  0  0  0
    0.1208    1.0004    0.6762 C   0  0  0  0  0  0  0  0  0  0  0  0
   -0.5434    0.7421    1.9943 C   0  0  0  0  0  0  0  0  0  0  0  0
    0.8416   -1.0595    1.5381 O   0  0  0  0  0  0  0  0  0  0  0  0
   -0.1077   -0.4444    2.4934 O   0  0  0  0  0  0  0  0  0  0  0  0
   -1.3457    1.4999    2.4832 O   0  0  0  0  0  0  0  0  0  0  0  0
   -1.5542    3.8096    1.5412 H   0  0  0  0  0  0  0  0  0  0  0  0
    0.3874   -0.8852   -0.4175 H   0  0  0  0  0  0  0  0  0  0  0  0
    1.9259   -0.1286    0.0959 H   0  0  0  0  0  0  0  0  0  0  0  0
   -1.1453    3.9274    0.8910 H   0  0  0  0  0  0  0  0  0  0  0  0
   -0.6256    1.2561   -0.0846 H   0  0  0  0  0  0  0  0  0  0  0  0
    0.8038    1.8509    0.7797 H   0  0  0  0  0  0  0  0  0  0  0  0
  1  2  1  0
  1  4  1  0
  1  8  1  0
  1  9  1  0
  2  3  1  0
  2 11  1  0
  2 12  1  0
  3  5  1  0
  3  6  2  0
  4  5  1  0
  7 10  1  0
M  END
