C1COOC1=O.[H][H]_15
     RDKit          3D

 12 11  0  0  0  0  0  0  0  0999 V2000
    0.1308    0.1002    0.4489 C   0  0  0  0  0  0  0  0  0  0  0  0
    0.6187    1.2630    1.3049 C   0  0  0  0  0  0  0  0  0  0  0  0
    0.4979    0.7697    2.7145 C   0  0  0  0  0  0  0  0  0  0  0  0
    0.0331   -1.0087    1.3028 O   0  0  0  0  0  0  0  0  0  0  0  0
    0.1744   -0.5502    2.7036 O   0  0  0  0  0  0  0  0  0  0  0  0
    0.6591    1.4839    3.6743 O   0  0  0  0  0  0  0  0  0  0  0  0
   -2.4337    2.6060   -0.8644 H   0  0  0  0  0  0  0  0  0  0  0  0
   -0.8729    0.2690    0.0359 H   0  0  0  0  0  0  0  0  0  0  0  0
    0.8162   -0.1619   -0.3688 H   0  0  0  0  0  0  0  0  0  0  0  0
   -1.6898    2.8300   -0.8600 H   0  0  0  0  0  0  0  0  0  0  0  0
    0.0293    2.1767    1.1678 H   0  0  0  0  0  0  0  0  0  0  0  0
    1.6677    1.5028    1.0982 H   0  0  0  0  0  0  0  0  0  0  0  0
  1  2  1  0
  1  4  1  0
  1  8  1  0
  1  9  1  0
  2  3  1  0
  2 11  1  0
  2 12  1  0
  3  5  1  0
  3  6  2  0
  4  5  1  0
  7 10  1  0
M  END
