C1COOC1=O.[H][H]_14
     RDKit          3D

 12 11  0  0  0  0  0  0  0  0999 V2000
    0.9039   -0.1324    0.1993 C   0  0  0  0  0  0  0  0  0  0  0  0
    1.2035    1.0225    1.1477 C   0  0  0  0  0  0  0  0  0  0  0  0
   -0.1440    1.5312    1.5604 C   0  0  0  0  0  0  0  0  0  0  0  0
   -0.4702   -0.3932    0.3105 O   0  0  0  0  0  0  0  0  0  0  0  0
   -1.1056    0.6968    1.0851 O   0  0  0  0  0  0  0  0  0  0  0  0
   -0.2937    2.5414    2.2039 O   0  0  0  0  0  0  0  0  0  0  0  0
   -3.5583    1.9651    1.7537 H   0  0  0  0  0  0  0  0  0  0  0  0
    1.0928    0.1221   -0.8524 H   0  0  0  0  0  0  0  0  0  0  0  0
    1.4437   -1.0565    0.4478 H   0  0  0  0  0  0  0  0  0  0  0  0
   -2.9751    2.4766    1.7849 H   0  0  0  0  0  0  0  0  0  0  0  0
    1.7873    1.8232    0.6794 H   0  0  0  0  0  0  0  0  0  0  0  0
    1.7463    0.6836    2.0373 H   0  0  0  0  0  0  0  0  0  0  0  0
  1  2  1  0
  1  4  1  0
  1  8  1  0
  1  9  1  0
  2  3  1  0
  2 11  1  0
  2 12  1  0
  3  5  1  0
  3  6  2  0
  4  5  1  0
  7 10  1  0
M  END
