C=CC=O.OO
     RDKit          3D

 12 10  0  0  0  0  0  0  0  0999 V2000
   -1.4034    0.4115   -0.3260 C   0  0  0  0  0  0  0  0  0  0  0  0
   -0.3844   -0.2169    0.2521 C   0  0  0  0  0  0  0  0  0  0  0  0
    0.2985    0.3522    1.4182 C   0  0  0  0  0  0  0  0  0  0  0  0
   -3.0187   -0.9891    2.5700 O   0  0  0  0  0  0  0  0  0  0  0  0
   -2.7256    0.0848    3.2736 O   0  0  0  0  0  0  0  0  0  0  0  0
    1.2564   -0.2672    1.9498 O   0  0  0  0  0  0  0  0  0  0  0  0
   -2.6763    0.8178    2.6080 H   0  0  0  0  0  0  0  0  0  0  0  0
   -1.8937   -0.0294   -1.1842 H   0  0  0  0  0  0  0  0  0  0  0  0
   -1.7594    1.3641    0.0469 H   0  0  0  0  0  0  0  0  0  0  0  0
   -0.0133    1.3032    1.8317 H   0  0  0  0  0  0  0  0  0  0  0  0
   -2.1583   -1.4725    2.4756 H   0  0  0  0  0  0  0  0  0  0  0  0
   -0.0542   -1.1693   -0.1441 H   0  0  0  0  0  0  0  0  0  0  0  0
  1  2  2  0
  1  8  1  0
  1  9  1  0
  2  3  1  0
  2 12  1  0
  3  6  2  0
  3 10  1  0
  4  5  1  0
  4 11  1  0
  5  7  1  0
M  END
