C=CC=O.OO_1
     RDKit          3D

 12 10  0  0  0  0  0  0  0  0999 V2000
   -1.0043    0.6241   -0.7819 C   0  0  0  0  0  0  0  0  0  0  0  0
   -0.9733    0.2684    0.4903 C   0  0  0  0  0  0  0  0  0  0  0  0
    0.2403    0.2468    1.2827 C   0  0  0  0  0  0  0  0  0  0  0  0
   -2.1302   -1.2156    3.3584 O   0  0  0  0  0  0  0  0  0  0  0  0
   -3.1128   -0.5205    2.5493 O   0  0  0  0  0  0  0  0  0  0  0  0
    0.3024   -0.1095    2.4288 O   0  0  0  0  0  0  0  0  0  0  0  0
   -3.8411   -0.3636    3.1714 H   0  0  0  0  0  0  0  0  0  0  0  0
   -1.9207    0.6278   -1.3389 H   0  0  0  0  0  0  0  0  0  0  0  0
   -0.1097    0.9181   -1.2953 H   0  0  0  0  0  0  0  0  0  0  0  0
    1.1680    0.5698    0.8294 H   0  0  0  0  0  0  0  0  0  0  0  0
   -1.2709   -0.8313    3.0835 H   0  0  0  0  0  0  0  0  0  0  0  0
   -1.8801   -0.0253    0.9938 H   0  0  0  0  0  0  0  0  0  0  0  0
  1  2  2  0
  1  8  1  0
  1  9  1  0
  2  3  1  0
  2 12  1  0
  3  6  2  0
  3 10  1  0
  4  5  1  0
  4 11  1  0
  5  7  1  0
M  END
