C=CC=O.OO_0
     RDKit          3D

 12 10  0  0  0  0  0  0  0  0999 V2000
   -1.4452    0.1351   -0.0994 C   0  0  0  0  0  0  0  0  0  0  0  0
   -0.1270    0.0864   -0.0301 C   0  0  0  0  0  0  0  0  0  0  0  0
    0.5709   -0.0145    1.2379 C   0  0  0  0  0  0  0  0  0  0  0  0
   -2.5844   -0.6555    3.1556 O   0  0  0  0  0  0  0  0  0  0  0  0
   -3.3916    0.2006    2.3104 O   0  0  0  0  0  0  0  0  0  0  0  0
    0.0406   -0.1205    2.3094 O   0  0  0  0  0  0  0  0  0  0  0  0
   -4.0416    0.5734    2.9273 H   0  0  0  0  0  0  0  0  0  0  0  0
   -1.9586    0.2066   -1.0388 H   0  0  0  0  0  0  0  0  0  0  0  0
   -2.0468    0.1076    0.7905 H   0  0  0  0  0  0  0  0  0  0  0  0
    1.6535    0.0057    1.2470 H   0  0  0  0  0  0  0  0  0  0  0  0
   -1.6593   -0.4558    2.8976 H   0  0  0  0  0  0  0  0  0  0  0  0
    0.4571    0.1202   -0.9357 H   0  0  0  0  0  0  0  0  0  0  0  0
  1  2  2  0
  1  8  1  0
  1  9  1  0
  2  3  1  0
  2 12  1  0
  3  6  2  0
  3 10  1  0
  4  5  1  0
  4 11  1  0
  5  7  1  0
M  END
