C=CC=O.OO_2
     RDKit          3D

 12 10  0  0  0  0  0  0  0  0999 V2000
   -0.6421    0.2594   -1.3859 C   0  0  0  0  0  0  0  0  0  0  0  0
    0.0182    0.0653   -0.2583 C   0  0  0  0  0  0  0  0  0  0  0  0
   -0.6641    0.0308    1.0207 C   0  0  0  0  0  0  0  0  0  0  0  0
   -3.0733    0.2714    3.7151 O   0  0  0  0  0  0  0  0  0  0  0  0
   -2.1295   -0.3826    4.5944 O   0  0  0  0  0  0  0  0  0  0  0  0
   -1.8487    0.1664    1.1602 O   0  0  0  0  0  0  0  0  0  0  0  0
   -2.6913   -0.9372    5.1616 H   0  0  0  0  0  0  0  0  0  0  0  0
   -0.1416    0.2867   -2.3349 H   0  0  0  0  0  0  0  0  0  0  0  0
   -1.7074    0.3979   -1.3815 H   0  0  0  0  0  0  0  0  0  0  0  0
   -0.0911   -0.1242    1.9267 H   0  0  0  0  0  0  0  0  0  0  0  0
   -2.6490    0.2261    2.8317 H   0  0  0  0  0  0  0  0  0  0  0  0
    1.0875   -0.0708   -0.2783 H   0  0  0  0  0  0  0  0  0  0  0  0
  1  2  2  0
  1  8  1  0
  1  9  1  0
  2  3  1  0
  2 12  1  0
  3  6  2  0
  3 10  1  0
  4  5  1  0
  4 11  1  0
  5  7  1  0
M  END
