OCC#COO.[H][H]_16
     RDKit          3D

 12 10  0  0  0  0  0  0  0  0999 V2000
    0.2676   -0.0888    1.8428 C   0  0  0  0  0  0  0  0  0  0  0  0
    0.7178    1.0210    1.6184 C   0  0  0  0  0  0  0  0  0  0  0  0
    1.2227    2.3195    1.3504 C   0  0  0  0  0  0  0  0  0  0  0  0
   -0.1956   -1.2851    2.1148 O   0  0  0  0  0  0  0  0  0  0  0  0
    0.6985   -2.0800    2.9443 O   0  0  0  0  0  0  0  0  0  0  0  0
    0.5811    3.0293    0.3124 O   0  0  0  0  0  0  0  0  0  0  0  0
    1.0173   -2.7728    2.3418 H   0  0  0  0  0  0  0  0  0  0  0  0
    2.2820    2.2565    1.0643 H   0  0  0  0  0  0  0  0  0  0  0  0
   -1.6403    0.0060   -0.4548 H   0  0  0  0  0  0  0  0  0  0  0  0
    1.1814    2.9411    2.2565 H   0  0  0  0  0  0  0  0  0  0  0  0
   -0.3928    2.9929    0.4244 H   0  0  0  0  0  0  0  0  0  0  0  0
   -1.8526    0.7245   -0.2489 H   0  0  0  0  0  0  0  0  0  0  0  0
  1  2  3  0
  1  4  1  0
  2  3  1  0
  3  6  1  0
  3  8  1  0
  3 10  1  0
  4  5  1  0
  5  7  1  0
  6 11  1  0
  9 12  1  0
M  END
