OCC#COO.[H][H]_13
     RDKit          3D

 12 10  0  0  0  0  0  0  0  0999 V2000
    0.2005   -0.0822    2.1586 C   0  0  0  0  0  0  0  0  0  0  0  0
    0.6210    0.9468    1.6596 C   0  0  0  0  0  0  0  0  0  0  0  0
    1.0929    2.1553    1.0855 C   0  0  0  0  0  0  0  0  0  0  0  0
   -0.2146   -1.1953    2.7139 O   0  0  0  0  0  0  0  0  0  0  0  0
    0.8643   -2.1083    3.0628 O   0  0  0  0  0  0  0  0  0  0  0  0
    0.1006    3.0589    0.6476 O   0  0  0  0  0  0  0  0  0  0  0  0
    0.7522   -2.8464    2.4409 H   0  0  0  0  0  0  0  0  0  0  0  0
    1.7111    1.9339    0.2042 H   0  0  0  0  0  0  0  0  0  0  0  0
   -1.4239    0.9728   -0.6879 H   0  0  0  0  0  0  0  0  0  0  0  0
    1.7419    2.6886    1.7949 H   0  0  0  0  0  0  0  0  0  0  0  0
   -0.5812    3.1806    1.3420 H   0  0  0  0  0  0  0  0  0  0  0  0
   -0.9777    0.3593   -0.8559 H   0  0  0  0  0  0  0  0  0  0  0  0
  1  2  3  0
  1  4  1  0
  2  3  1  0
  3  6  1  0
  3  8  1  0
  3 10  1  0
  4  5  1  0
  5  7  1  0
  6 11  1  0
  9 12  1  0
M  END
