OCC#COO.[H][H]_17
     RDKit          3D

 12 10  0  0  0  0  0  0  0  0999 V2000
    0.7776   -0.2460    1.5013 C   0  0  0  0  0  0  0  0  0  0  0  0
    0.9824    0.9536    1.4407 C   0  0  0  0  0  0  0  0  0  0  0  0
    1.1754    2.3571    1.3647 C   0  0  0  0  0  0  0  0  0  0  0  0
    0.5155   -1.5268    1.6037 O   0  0  0  0  0  0  0  0  0  0  0  0
   -0.2008   -1.8772    2.8222 O   0  0  0  0  0  0  0  0  0  0  0  0
    0.2276    3.0686    0.5974 O   0  0  0  0  0  0  0  0  0  0  0  0
    0.4439   -2.4007    3.3270 H   0  0  0  0  0  0  0  0  0  0  0  0
    2.1546    2.5771    0.9167 H   0  0  0  0  0  0  0  0  0  0  0  0
   -1.0751    0.2481   -0.8777 H   0  0  0  0  0  0  0  0  0  0  0  0
    1.1870    2.7971    2.3722 H   0  0  0  0  0  0  0  0  0  0  0  0
   -0.6818    2.7818    0.8272 H   0  0  0  0  0  0  0  0  0  0  0  0
   -1.6190    0.3313   -0.3292 H   0  0  0  0  0  0  0  0  0  0  0  0
  1  2  3  0
  1  4  1  0
  2  3  1  0
  3  6  1  0
  3  8  1  0
  3 10  1  0
  4  5  1  0
  5  7  1  0
  6 11  1  0
  9 12  1  0
M  END
