OCC#COO.[H][H]_4
     RDKit          3D

 12 10  0  0  0  0  0  0  0  0999 V2000
    0.2436    0.2176    2.2418 C   0  0  0  0  0  0  0  0  0  0  0  0
    0.6426    1.2044    1.6488 C   0  0  0  0  0  0  0  0  0  0  0  0
    1.0830    2.3631    0.9586 C   0  0  0  0  0  0  0  0  0  0  0  0
   -0.1994   -0.8660    2.8328 O   0  0  0  0  0  0  0  0  0  0  0  0
   -0.1657   -2.0471    1.9816 O   0  0  0  0  0  0  0  0  0  0  0  0
    0.8595    3.5936    1.6135 O   0  0  0  0  0  0  0  0  0  0  0  0
    0.5256   -2.6003    2.3823 H   0  0  0  0  0  0  0  0  0  0  0  0
    0.6103    2.4208   -0.0326 H   0  0  0  0  0  0  0  0  0  0  0  0
   -1.0097   -0.8868   -0.1705 H   0  0  0  0  0  0  0  0  0  0  0  0
    2.1665    2.3051    0.7839 H   0  0  0  0  0  0  0  0  0  0  0  0
   -0.0636    3.6432    1.9415 H   0  0  0  0  0  0  0  0  0  0  0  0
   -0.8056   -0.2836   -0.6156 H   0  0  0  0  0  0  0  0  0  0  0  0
  1  2  3  0
  1  4  1  0
  2  3  1  0
  3  6  1  0
  3  8  1  0
  3 10  1  0
  4  5  1  0
  5  7  1  0
  6 11  1  0
  9 12  1  0
M  END
