OCC#COO.[H][H]_9
     RDKit          3D

 12 10  0  0  0  0  0  0  0  0999 V2000
    1.1152   -0.1433    1.5711 C   0  0  0  0  0  0  0  0  0  0  0  0
    0.9494    1.0627    1.5184 C   0  0  0  0  0  0  0  0  0  0  0  0
    0.7502    2.4651    1.4393 C   0  0  0  0  0  0  0  0  0  0  0  0
    1.2686   -1.4429    1.6576 O   0  0  0  0  0  0  0  0  0  0  0  0
    0.3445   -2.0756    2.5870 O   0  0  0  0  0  0  0  0  0  0  0  0
    0.6105    2.9960    0.1386 O   0  0  0  0  0  0  0  0  0  0  0  0
   -0.2654   -2.5645    2.0095 H   0  0  0  0  0  0  0  0  0  0  0  0
    1.5756    2.9985    1.9323 H   0  0  0  0  0  0  0  0  0  0  0  0
   -1.9390    0.1964    0.9558 H   0  0  0  0  0  0  0  0  0  0  0  0
   -0.1661    2.7424    1.9792 H   0  0  0  0  0  0  0  0  0  0  0  0
    1.3209    2.6572   -0.4471 H   0  0  0  0  0  0  0  0  0  0  0  0
   -1.6773    0.1721    0.2245 H   0  0  0  0  0  0  0  0  0  0  0  0
  1  2  3  0
  1  4  1  0
  2  3  1  0
  3  6  1  0
  3  8  1  0
  3 10  1  0
  4  5  1  0
  5  7  1  0
  6 11  1  0
  9 12  1  0
M  END
