OCC#COO.[H][H]
     RDKit          3D

 12 10  0  0  0  0  0  0  0  0999 V2000
    0.9048   -0.0757    2.0961 C   0  0  0  0  0  0  0  0  0  0  0  0
    0.9758    1.0755    1.7453 C   0  0  0  0  0  0  0  0  0  0  0  0
    1.0603    2.4725    1.3181 C   0  0  0  0  0  0  0  0  0  0  0  0
    0.8228   -1.3799    2.4922 O   0  0  0  0  0  0  0  0  0  0  0  0
   -0.1140   -2.1803    1.9701 O   0  0  0  0  0  0  0  0  0  0  0  0
    0.0652    2.7259    0.3684 O   0  0  0  0  0  0  0  0  0  0  0  0
    0.0332   -3.0551    2.4103 H   0  0  0  0  0  0  0  0  0  0  0  0
    2.0643    2.6546    0.8769 H   0  0  0  0  0  0  0  0  0  0  0  0
   -1.2818   -0.0840   -0.2730 H   0  0  0  0  0  0  0  0  0  0  0  0
    0.9190    3.1296    2.2037 H   0  0  0  0  0  0  0  0  0  0  0  0
    0.1659    3.6798    0.1138 H   0  0  0  0  0  0  0  0  0  0  0  0
   -1.7284    0.1011    0.2443 H   0  0  0  0  0  0  0  0  0  0  0  0
  1  2  3  0
  1  4  1  0
  2  3  1  0
  3  6  1  0
  3  8  1  0
  3 10  1  0
  4  5  1  0
  5  7  1  0
  6 11  1  0
  9 12  1  0
M  END
