OCC#COO.[H][H]_5
     RDKit          3D

 12 10  0  0  0  0  0  0  0  0999 V2000
    0.5509    0.1675    2.2044 C   0  0  0  0  0  0  0  0  0  0  0  0
    0.6291    1.1936    1.5520 C   0  0  0  0  0  0  0  0  0  0  0  0
    0.7198    2.3930    0.7997 C   0  0  0  0  0  0  0  0  0  0  0  0
    0.4333   -0.9526    2.8760 O   0  0  0  0  0  0  0  0  0  0  0  0
   -0.1402   -2.0400    2.0960 O   0  0  0  0  0  0  0  0  0  0  0  0
    1.7279    3.2973    1.1982 O   0  0  0  0  0  0  0  0  0  0  0  0
    0.6042   -2.6524    1.9723 H   0  0  0  0  0  0  0  0  0  0  0  0
   -0.2391    2.9306    0.8187 H   0  0  0  0  0  0  0  0  0  0  0  0
   -1.4679   -0.1258   -0.1684 H   0  0  0  0  0  0  0  0  0  0  0  0
    0.9233    2.1577   -0.2545 H   0  0  0  0  0  0  0  0  0  0  0  0
    1.7012    3.4328    2.1694 H   0  0  0  0  0  0  0  0  0  0  0  0
   -1.5555   -0.7377    0.3023 H   0  0  0  0  0  0  0  0  0  0  0  0
  1  2  3  0
  1  4  1  0
  2  3  1  0
  3  6  1  0
  3  8  1  0
  3 10  1  0
  4  5  1  0
  5  7  1  0
  6 11  1  0
  9 12  1  0
M  END
