OCC#COO.[H][H]_14
     RDKit          3D

 12 10  0  0  0  0  0  0  0  0999 V2000
    0.4595   -0.3559    1.5790 C   0  0  0  0  0  0  0  0  0  0  0  0
    0.6075    0.8531    1.5446 C   0  0  0  0  0  0  0  0  0  0  0  0
    0.7902    2.2582    1.4721 C   0  0  0  0  0  0  0  0  0  0  0  0
    0.3493   -1.6617    1.6258 O   0  0  0  0  0  0  0  0  0  0  0  0
    1.3979   -2.3060    2.4039 O   0  0  0  0  0  0  0  0  0  0  0  0
    0.5218    2.8507    0.2190 O   0  0  0  0  0  0  0  0  0  0  0  0
    0.9289   -2.6529    3.1812 H   0  0  0  0  0  0  0  0  0  0  0  0
    1.8186    2.5256    1.7548 H   0  0  0  0  0  0  0  0  0  0  0  0
   -2.2007    1.2724    0.3945 H   0  0  0  0  0  0  0  0  0  0  0  0
    0.1285    2.7595    2.1922 H   0  0  0  0  0  0  0  0  0  0  0  0
    0.9552    2.3420   -0.4989 H   0  0  0  0  0  0  0  0  0  0  0  0
   -1.8695    1.1790   -0.3021 H   0  0  0  0  0  0  0  0  0  0  0  0
  1  2  3  0
  1  4  1  0
  2  3  1  0
  3  6  1  0
  3  8  1  0
  3 10  1  0
  4  5  1  0
  5  7  1  0
  6 11  1  0
  9 12  1  0
M  END
