OCC#COO.[H][H]_18
     RDKit          3D

 12 10  0  0  0  0  0  0  0  0999 V2000
    1.1858   -0.4634    2.5085 C   0  0  0  0  0  0  0  0  0  0  0  0
    0.8206    0.5277    1.9011 C   0  0  0  0  0  0  0  0  0  0  0  0
    0.3779    1.6531    1.1594 C   0  0  0  0  0  0  0  0  0  0  0  0
    1.5669   -1.5616    3.1156 O   0  0  0  0  0  0  0  0  0  0  0  0
    1.1060   -2.7765    2.4591 O   0  0  0  0  0  0  0  0  0  0  0  0
   -0.7034    1.4232    0.2813 O   0  0  0  0  0  0  0  0  0  0  0  0
    0.4420   -3.1324    3.0731 H   0  0  0  0  0  0  0  0  0  0  0  0
    1.2051    2.0719    0.5684 H   0  0  0  0  0  0  0  0  0  0  0  0
   -0.4914    4.3453   -0.4800 H   0  0  0  0  0  0  0  0  0  0  0  0
    0.0499    2.4479    1.8439 H   0  0  0  0  0  0  0  0  0  0  0  0
   -0.5472    0.6108   -0.2455 H   0  0  0  0  0  0  0  0  0  0  0  0
   -1.1251    3.9180   -0.6188 H   0  0  0  0  0  0  0  0  0  0  0  0
  1  2  3  0
  1  4  1  0
  2  3  1  0
  3  6  1  0
  3  8  1  0
  3 10  1  0
  4  5  1  0
  5  7  1  0
  6 11  1  0
  9 12  1  0
M  END
