OCC#COO.[H][H]_6
     RDKit          3D

 12 10  0  0  0  0  0  0  0  0999 V2000
    1.0920   -0.0434    2.1140 C   0  0  0  0  0  0  0  0  0  0  0  0
    1.1604    1.1004    1.6995 C   0  0  0  0  0  0  0  0  0  0  0  0
    1.1878    2.4340    1.2163 C   0  0  0  0  0  0  0  0  0  0  0  0
    0.9592   -1.2673    2.5656 O   0  0  0  0  0  0  0  0  0  0  0  0
   -0.4215   -1.7283    2.5917 O   0  0  0  0  0  0  0  0  0  0  0  0
    0.0010    2.8888    0.6014 O   0  0  0  0  0  0  0  0  0  0  0  0
   -0.4542   -2.3981    1.8882 H   0  0  0  0  0  0  0  0  0  0  0  0
    1.9811    2.5441    0.4637 H   0  0  0  0  0  0  0  0  0  0  0  0
   -0.8789    0.0075   -0.1213 H   0  0  0  0  0  0  0  0  0  0  0  0
    1.4309    3.1318    2.0305 H   0  0  0  0  0  0  0  0  0  0  0  0
   -0.7774    2.6594    1.1523 H   0  0  0  0  0  0  0  0  0  0  0  0
   -1.3934   -0.2649   -0.6358 H   0  0  0  0  0  0  0  0  0  0  0  0
  1  2  3  0
  1  4  1  0
  2  3  1  0
  3  6  1  0
  3  8  1  0
  3 10  1  0
  4  5  1  0
  5  7  1  0
  6 11  1  0
  9 12  1  0
M  END
