OCC#COO.[H][H]_11
     RDKit          3D

 12 10  0  0  0  0  0  0  0  0999 V2000
    0.4512   -0.1836    1.4154 C   0  0  0  0  0  0  0  0  0  0  0  0
    0.5415    1.0129    1.2035 C   0  0  0  0  0  0  0  0  0  0  0  0
    0.6677    2.4102    0.9934 C   0  0  0  0  0  0  0  0  0  0  0  0
    0.3887   -1.4662    1.6815 O   0  0  0  0  0  0  0  0  0  0  0  0
    0.9203   -1.8130    2.9917 O   0  0  0  0  0  0  0  0  0  0  0  0
    0.8616    3.1910    2.1537 O   0  0  0  0  0  0  0  0  0  0  0  0
    0.1317   -2.0645    3.5011 H   0  0  0  0  0  0  0  0  0  0  0  0
   -0.2402    2.8008    0.5128 H   0  0  0  0  0  0  0  0  0  0  0  0
   -1.4668   -0.4990   -0.8909 H   0  0  0  0  0  0  0  0  0  0  0  0
    1.4997    2.6207    0.3061 H   0  0  0  0  0  0  0  0  0  0  0  0
    1.5529    2.7899    2.7223 H   0  0  0  0  0  0  0  0  0  0  0  0
   -1.4213    0.2648   -1.0244 H   0  0  0  0  0  0  0  0  0  0  0  0
  1  2  3  0
  1  4  1  0
  2  3  1  0
  3  6  1  0
  3  8  1  0
  3 10  1  0
  4  5  1  0
  5  7  1  0
  6 11  1  0
  9 12  1  0
M  END
