OCC#COO.[H][H]_7
     RDKit          3D

 12 10  0  0  0  0  0  0  0  0999 V2000
    0.1795   -0.1322    1.7883 C   0  0  0  0  0  0  0  0  0  0  0  0
    0.3566    1.0427    1.5182 C   0  0  0  0  0  0  0  0  0  0  0  0
    0.6012    2.4005    1.1876 C   0  0  0  0  0  0  0  0  0  0  0  0
    0.0325   -1.4088    2.0494 O   0  0  0  0  0  0  0  0  0  0  0  0
    1.2440   -2.1875    1.8361 O   0  0  0  0  0  0  0  0  0  0  0  0
    1.9523    2.8082    1.2246 O   0  0  0  0  0  0  0  0  0  0  0  0
    1.5194   -2.4358    2.7344 H   0  0  0  0  0  0  0  0  0  0  0  0
    0.0660    3.0588    1.8861 H   0  0  0  0  0  0  0  0  0  0  0  0
   -2.4387    0.1818    0.2312 H   0  0  0  0  0  0  0  0  0  0  0  0
    0.2112    2.6268    0.1848 H   0  0  0  0  0  0  0  0  0  0  0  0
    2.5171    2.1579    0.7553 H   0  0  0  0  0  0  0  0  0  0  0  0
   -2.3539    0.9516    0.1701 H   0  0  0  0  0  0  0  0  0  0  0  0
  1  2  3  0
  1  4  1  0
  2  3  1  0
  3  6  1  0
  3  8  1  0
  3 10  1  0
  4  5  1  0
  5  7  1  0
  6 11  1  0
  9 12  1  0
M  END
