OCC#COO.[H][H]_2
     RDKit          3D

 12 10  0  0  0  0  0  0  0  0999 V2000
    1.0503   -0.0502    2.1048 C   0  0  0  0  0  0  0  0  0  0  0  0
    1.1232    1.0936    1.6910 C   0  0  0  0  0  0  0  0  0  0  0  0
    1.1569    2.4262    1.2054 C   0  0  0  0  0  0  0  0  0  0  0  0
    0.9143   -1.2734    2.5573 O   0  0  0  0  0  0  0  0  0  0  0  0
   -0.4632   -1.7443    2.5486 O   0  0  0  0  0  0  0  0  0  0  0  0
   -0.0136    2.8723    0.5540 O   0  0  0  0  0  0  0  0  0  0  0  0
   -0.4725   -2.4167    1.8469 H   0  0  0  0  0  0  0  0  0  0  0  0
    1.9717    2.5394    0.4767 H   0  0  0  0  0  0  0  0  0  0  0  0
   -0.6800   -0.0822   -0.5192 H   0  0  0  0  0  0  0  0  0  0  0  0
    1.3712    3.1273    2.0248 H   0  0  0  0  0  0  0  0  0  0  0  0
   -0.8068    2.6402    1.0823 H   0  0  0  0  0  0  0  0  0  0  0  0
   -1.2643   -0.0682   -0.0063 H   0  0  0  0  0  0  0  0  0  0  0  0
  1  2  3  0
  1  4  1  0
  2  3  1  0
  3  6  1  0
  3  8  1  0
  3 10  1  0
  4  5  1  0
  5  7  1  0
  6 11  1  0
  9 12  1  0
M  END
