OCC#COO.[H][H]_12
     RDKit          3D

 12 10  0  0  0  0  0  0  0  0999 V2000
    1.1098   -0.1490    1.5834 C   0  0  0  0  0  0  0  0  0  0  0  0
    0.9543    1.0584    1.5306 C   0  0  0  0  0  0  0  0  0  0  0  0
    0.7664    2.4624    1.4516 C   0  0  0  0  0  0  0  0  0  0  0  0
    1.2535   -1.4496    1.6700 O   0  0  0  0  0  0  0  0  0  0  0  0
    0.3430   -2.0720    2.6199 O   0  0  0  0  0  0  0  0  0  0  0  0
    0.5603    2.9854    0.1566 O   0  0  0  0  0  0  0  0  0  0  0  0
   -0.2828   -2.5569    2.0560 H   0  0  0  0  0  0  0  0  0  0  0  0
    1.6237    2.9899    1.8938 H   0  0  0  0  0  0  0  0  0  0  0  0
   -1.6376    0.1836    0.1538 H   0  0  0  0  0  0  0  0  0  0  0  0
   -0.1154    2.7539    2.0395 H   0  0  0  0  0  0  0  0  0  0  0  0
    1.2325    2.6336   -0.4653 H   0  0  0  0  0  0  0  0  0  0  0  0
   -1.9207    0.2242    0.8763 H   0  0  0  0  0  0  0  0  0  0  0  0
  1  2  3  0
  1  4  1  0
  2  3  1  0
  3  6  1  0
  3  8  1  0
  3 10  1  0
  4  5  1  0
  5  7  1  0
  6 11  1  0
  9 12  1  0
M  END
