COO/C=C\O
     RDKit          3D

 12 11  0  0  0  0  0  0  0  0999 V2000
   -0.9884   -1.0909   -0.2893 C   0  0  0  0  0  0  0  0  0  0  0  0
    2.1417    1.6166    1.5702 C   0  0  0  0  0  0  0  0  0  0  0  0
    0.8441    1.3808    1.4144 C   0  0  0  0  0  0  0  0  0  0  0  0
   -0.9017    0.0579    0.5071 O   0  0  0  0  0  0  0  0  0  0  0  0
    3.0870    0.7812    0.9851 O   0  0  0  0  0  0  0  0  0  0  0  0
    0.4099    0.2935    0.6627 O   0  0  0  0  0  0  0  0  0  0  0  0
    4.0757    0.9636    1.1057 H   0  0  0  0  0  0  0  0  0  0  0  0
   -2.0580   -1.3358   -0.4528 H   0  0  0  0  0  0  0  0  0  0  0  0
   -0.5142   -0.9155   -1.2799 H   0  0  0  0  0  0  0  0  0  0  0  0
    0.1198    2.0405    1.8764 H   0  0  0  0  0  0  0  0  0  0  0  0
   -0.5053   -1.9547    0.2182 H   0  0  0  0  0  0  0  0  0  0  0  0
    2.4672    2.4662    2.1577 H   0  0  0  0  0  0  0  0  0  0  0  0
  1  4  1  0
  1  8  1  0
  1  9  1  0
  1 11  1  0
  2  3  2  0
  2  5  1  0
  2 12  1  0
  3  6  1  0
  3 10  1  0
  4  6  1  0
  5  7  1  0
M  END
