COO/C=C\O_3
     RDKit          3D

 12 11  0  0  0  0  0  0  0  0999 V2000
   -0.4827   -1.0063    0.0332 C   0  0  0  0  0  0  0  0  0  0  0  0
    2.0166    1.3059    1.6252 C   0  0  0  0  0  0  0  0  0  0  0  0
    0.7416    1.5627    1.3312 C   0  0  0  0  0  0  0  0  0  0  0  0
   -0.9043    0.2940    0.2530 O   0  0  0  0  0  0  0  0  0  0  0  0
    2.8464    0.7084    0.7087 O   0  0  0  0  0  0  0  0  0  0  0  0
    0.2270    1.2290    0.0963 O   0  0  0  0  0  0  0  0  0  0  0  0
    2.3497    0.6356   -0.1386 H   0  0  0  0  0  0  0  0  0  0  0  0
   -0.0882   -1.0728   -0.9822 H   0  0  0  0  0  0  0  0  0  0  0  0
    0.2993   -1.2483    0.7555 H   0  0  0  0  0  0  0  0  0  0  0  0
    0.0777    2.0198    2.0481 H   0  0  0  0  0  0  0  0  0  0  0  0
   -1.3327   -1.6807    0.1541 H   0  0  0  0  0  0  0  0  0  0  0  0
    2.4276    1.5562    2.5910 H   0  0  0  0  0  0  0  0  0  0  0  0
  1  4  1  0
  1  8  1  0
  1  9  1  0
  1 11  1  0
  2  3  2  0
  2  5  1  0
  2 12  1  0
  3  6  1  0
  3 10  1  0
  4  6  1  0
  5  7  1  0
M  END
