COO/C=C\O_2
     RDKit          3D

 12 11  0  0  0  0  0  0  0  0999 V2000
   -0.3476   -0.9893    0.0521 C   0  0  0  0  0  0  0  0  0  0  0  0
    1.9488    1.2413    1.5786 C   0  0  0  0  0  0  0  0  0  0  0  0
    0.6954    1.6394    1.3582 C   0  0  0  0  0  0  0  0  0  0  0  0
   -0.9051    0.2336    0.3862 O   0  0  0  0  0  0  0  0  0  0  0  0
    2.6401    0.5332    0.6263 O   0  0  0  0  0  0  0  0  0  0  0  0
    0.0639    1.3242    0.1716 O   0  0  0  0  0  0  0  0  0  0  0  0
    2.1103    0.5577   -0.2037 H   0  0  0  0  0  0  0  0  0  0  0  0
   -0.0391   -0.9541   -0.9942 H   0  0  0  0  0  0  0  0  0  0  0  0
    0.5163   -1.1696    0.6949 H   0  0  0  0  0  0  0  0  0  0  0  0
    0.1412    2.1948    2.0988 H   0  0  0  0  0  0  0  0  0  0  0  0
   -1.0959   -1.7707    0.1983 H   0  0  0  0  0  0  0  0  0  0  0  0
    2.4496    1.4628    2.5084 H   0  0  0  0  0  0  0  0  0  0  0  0
  1  4  1  0
  1  8  1  0
  1  9  1  0
  1 11  1  0
  2  3  2  0
  2  5  1  0
  2 12  1  0
  3  6  1  0
  3 10  1  0
  4  6  1  0
  5  7  1  0
M  END
