COO/C=C\O_0
     RDKit          3D

 12 11  0  0  0  0  0  0  0  0999 V2000
   -0.4408   -0.8362   -0.3115 C   0  0  0  0  0  0  0  0  0  0  0  0
    1.8220    1.7394    1.3076 C   0  0  0  0  0  0  0  0  0  0  0  0
    0.7045    1.2172    1.8119 C   0  0  0  0  0  0  0  0  0  0  0  0
    0.7439   -0.6724    0.3860 O   0  0  0  0  0  0  0  0  0  0  0  0
    2.7563    0.9457    0.6973 O   0  0  0  0  0  0  0  0  0  0  0  0
    0.4637   -0.1370    1.7288 O   0  0  0  0  0  0  0  0  0  0  0  0
    2.3604    0.0469    0.6277 H   0  0  0  0  0  0  0  0  0  0  0  0
   -0.9196    0.1381   -0.4217 H   0  0  0  0  0  0  0  0  0  0  0  0
   -0.2228   -1.2659   -1.2913 H   0  0  0  0  0  0  0  0  0  0  0  0
   -0.0295    1.8351    2.3051 H   0  0  0  0  0  0  0  0  0  0  0  0
   -1.0845   -1.5054    0.2628 H   0  0  0  0  0  0  0  0  0  0  0  0
    2.0242    2.7977    1.3729 H   0  0  0  0  0  0  0  0  0  0  0  0
  1  4  1  0
  1  8  1  0
  1  9  1  0
  1 11  1  0
  2  3  2  0
  2  5  1  0
  2 12  1  0
  3  6  1  0
  3 10  1  0
  4  6  1  0
  5  7  1  0
M  END
