C=O.O=CC=O.[H][H]_14
     RDKit          3D

 12  9  0  0  0  0  0  0  0  0999 V2000
   -3.7307   -0.3460   -0.4117 C   0  0  0  0  0  0  0  0  0  0  0  0
   -0.1824    0.2030    1.3194 C   0  0  0  0  0  0  0  0  0  0  0  0
   -1.0673    0.7047    2.3607 C   0  0  0  0  0  0  0  0  0  0  0  0
   -2.7917   -0.1281    0.2811 O   0  0  0  0  0  0  0  0  0  0  0  0
    1.0119    0.1810    1.3779 O   0  0  0  0  0  0  0  0  0  0  0  0
   -0.7141    1.1597    3.4088 O   0  0  0  0  0  0  0  0  0  0  0  0
    0.4303    3.1515    1.4468 H   0  0  0  0  0  0  0  0  0  0  0  0
   -4.0996    0.4297   -1.0666 H   0  0  0  0  0  0  0  0  0  0  0  0
   -4.2029   -1.3168   -0.3773 H   0  0  0  0  0  0  0  0  0  0  0  0
   -2.1379    0.6758    2.1902 H   0  0  0  0  0  0  0  0  0  0  0  0
   -0.1430    3.2114    0.9259 H   0  0  0  0  0  0  0  0  0  0  0  0
   -0.6221   -0.1834    0.4065 H   0  0  0  0  0  0  0  0  0  0  0  0
  1  4  2  0
  1  8  1  0
  1  9  1  0
  2  3  1  0
  2  5  2  0
  2 12  1  0
  3  6  2  0
  3 10  1  0
  7 11  1  0
M  END
