C=O.O=CC=O.[H][H]_17
     RDKit          3D

 12  9  0  0  0  0  0  0  0  0999 V2000
   -4.0834   -0.6821   -0.1126 C   0  0  0  0  0  0  0  0  0  0  0  0
   -1.2745    1.2912    1.9090 C   0  0  0  0  0  0  0  0  0  0  0  0
   -0.4663    0.2589    1.2763 C   0  0  0  0  0  0  0  0  0  0  0  0
   -3.1075   -0.2396    0.3983 O   0  0  0  0  0  0  0  0  0  0  0  0
   -0.8607    2.1421    2.6404 O   0  0  0  0  0  0  0  0  0  0  0  0
    0.7152    0.1281    1.4075 O   0  0  0  0  0  0  0  0  0  0  0  0
    1.5179    2.6370    1.6358 H   0  0  0  0  0  0  0  0  0  0  0  0
   -4.6533   -1.4433    0.3998 H   0  0  0  0  0  0  0  0  0  0  0  0
   -4.3884   -0.3164   -1.0819 H   0  0  0  0  0  0  0  0  0  0  0  0
   -0.9570   -0.4622    0.6319 H   0  0  0  0  0  0  0  0  0  0  0  0
    1.6499    3.1215    1.0429 H   0  0  0  0  0  0  0  0  0  0  0  0
   -2.3412    1.3072    1.7145 H   0  0  0  0  0  0  0  0  0  0  0  0
  1  4  2  0
  1  8  1  0
  1  9  1  0
  2  3  1  0
  2  5  2  0
  2 12  1  0
  3  6  2  0
  3 10  1  0
  7 11  1  0
M  END
