C=O.O=CC=O.[H][H]_2
     RDKit          3D

 12  9  0  0  0  0  0  0  0  0999 V2000
   -3.8033   -0.2908    0.2656 C   0  0  0  0  0  0  0  0  0  0  0  0
   -0.4298    0.1567    1.1716 C   0  0  0  0  0  0  0  0  0  0  0  0
   -1.0610    0.9310    2.2332 C   0  0  0  0  0  0  0  0  0  0  0  0
   -2.7857   -0.6783   -0.2090 O   0  0  0  0  0  0  0  0  0  0  0  0
    0.7554    0.0207    1.0623 O   0  0  0  0  0  0  0  0  0  0  0  0
   -2.2439    1.0779    2.3560 O   0  0  0  0  0  0  0  0  0  0  0  0
    0.9582    2.6628    0.1576 H   0  0  0  0  0  0  0  0  0  0  0  0
   -4.7432   -0.5605   -0.1906 H   0  0  0  0  0  0  0  0  0  0  0  0
   -3.7684    0.3277    1.1518 H   0  0  0  0  0  0  0  0  0  0  0  0
   -0.4296    1.4148    2.9710 H   0  0  0  0  0  0  0  0  0  0  0  0
    0.3428    3.0164    0.4736 H   0  0  0  0  0  0  0  0  0  0  0  0
   -1.0409   -0.3360    0.4189 H   0  0  0  0  0  0  0  0  0  0  0  0
  1  4  2  0
  1  8  1  0
  1  9  1  0
  2  3  1  0
  2  5  2  0
  2 12  1  0
  3  6  2  0
  3 10  1  0
  7 11  1  0
M  END
