C=O.O=CC=O.[H][H]_13
     RDKit          3D

 12  9  0  0  0  0  0  0  0  0999 V2000
   -3.5806   -0.0499   -0.4475 C   0  0  0  0  0  0  0  0  0  0  0  0
   -1.0905    0.8492    2.5318 C   0  0  0  0  0  0  0  0  0  0  0  0
   -0.2402   -0.0088    1.7194 C   0  0  0  0  0  0  0  0  0  0  0  0
   -2.7121    0.0600    0.3542 O   0  0  0  0  0  0  0  0  0  0  0  0
   -0.7583    1.3959    3.5422 O   0  0  0  0  0  0  0  0  0  0  0  0
    0.9004   -0.2782    1.9574 O   0  0  0  0  0  0  0  0  0  0  0  0
    0.2744    2.8035    0.6101 H   0  0  0  0  0  0  0  0  0  0  0  0
   -3.6596    0.6710   -1.2480 H   0  0  0  0  0  0  0  0  0  0  0  0
   -4.2797   -0.8690   -0.3648 H   0  0  0  0  0  0  0  0  0  0  0  0
   -0.6548   -0.4460    0.8177 H   0  0  0  0  0  0  0  0  0  0  0  0
   -0.3373    2.5919    0.1801 H   0  0  0  0  0  0  0  0  0  0  0  0
   -2.1112    1.0229    2.2094 H   0  0  0  0  0  0  0  0  0  0  0  0
  1  4  2  0
  1  8  1  0
  1  9  1  0
  2  3  1  0
  2  5  2  0
  2 12  1  0
  3  6  2  0
  3 10  1  0
  7 11  1  0
M  END
