C=O.O=CC=O.[H][H]_12
     RDKit          3D

 12  9  0  0  0  0  0  0  0  0999 V2000
   -3.4323    0.2125   -0.4743 C   0  0  0  0  0  0  0  0  0  0  0  0
   -1.0624    0.9040    2.6526 C   0  0  0  0  0  0  0  0  0  0  0  0
   -0.2955   -0.1187    1.9562 C   0  0  0  0  0  0  0  0  0  0  0  0
   -2.6279    0.2269    0.3985 O   0  0  0  0  0  0  0  0  0  0  0  0
   -0.7237    1.4604    3.6555 O   0  0  0  0  0  0  0  0  0  0  0  0
    0.7727   -0.5349    2.2967 O   0  0  0  0  0  0  0  0  0  0  0  0
   -0.6111    2.1678   -0.2770 H   0  0  0  0  0  0  0  0  0  0  0  0
   -4.2411   -0.5026   -0.4397 H   0  0  0  0  0  0  0  0  0  0  0  0
   -3.3460    0.9166   -1.2886 H   0  0  0  0  0  0  0  0  0  0  0  0
   -0.7081   -0.5500    1.0508 H   0  0  0  0  0  0  0  0  0  0  0  0
    0.0474    2.3585    0.0879 H   0  0  0  0  0  0  0  0  0  0  0  0
   -2.0214    1.2020    2.2433 H   0  0  0  0  0  0  0  0  0  0  0  0
  1  4  2  0
  1  8  1  0
  1  9  1  0
  2  3  1  0
  2  5  2  0
  2 12  1  0
  3  6  2  0
  3 10  1  0
  7 11  1  0
M  END
