C=O.O=CC=O.[H][H]_16
     RDKit          3D

 12  9  0  0  0  0  0  0  0  0999 V2000
   -3.9141   -0.4901   -0.2707 C   0  0  0  0  0  0  0  0  0  0  0  0
   -1.1856    1.0508    2.1953 C   0  0  0  0  0  0  0  0  0  0  0  0
   -0.3463    0.1941    1.3703 C   0  0  0  0  0  0  0  0  0  0  0  0
   -2.9628   -0.1614    0.3587 O   0  0  0  0  0  0  0  0  0  0  0  0
   -0.7995    1.7388    3.0941 O   0  0  0  0  0  0  0  0  0  0  0  0
    0.8376    0.0688    1.4845 O   0  0  0  0  0  0  0  0  0  0  0  0
    0.7485    3.0857    0.7622 H   0  0  0  0  0  0  0  0  0  0  0  0
   -4.1775    0.0595   -1.1623 H   0  0  0  0  0  0  0  0  0  0  0  0
   -4.5028   -1.3342    0.0574 H   0  0  0  0  0  0  0  0  0  0  0  0
   -0.8129   -0.3849    0.5811 H   0  0  0  0  0  0  0  0  0  0  0  0
    1.1167    2.8318    1.3975 H   0  0  0  0  0  0  0  0  0  0  0  0
   -2.2507    1.0833    1.9937 H   0  0  0  0  0  0  0  0  0  0  0  0
  1  4  2  0
  1  8  1  0
  1  9  1  0
  2  3  1  0
  2  5  2  0
  2 12  1  0
  3  6  2  0
  3 10  1  0
  7 11  1  0
M  END
