C=O.O=CC=O.[H][H]_3
     RDKit          3D

 12  9  0  0  0  0  0  0  0  0999 V2000
   -3.7007   -0.5400    0.1236 C   0  0  0  0  0  0  0  0  0  0  0  0
   -1.2948    1.1935    2.1465 C   0  0  0  0  0  0  0  0  0  0  0  0
   -0.5016    0.2531    1.3645 C   0  0  0  0  0  0  0  0  0  0  0  0
   -2.6173   -0.9616   -0.1198 O   0  0  0  0  0  0  0  0  0  0  0  0
   -2.4858    1.3029    2.0737 O   0  0  0  0  0  0  0  0  0  0  0  0
    0.6895    0.1563    1.4491 O   0  0  0  0  0  0  0  0  0  0  0  0
    1.2166    2.5880    0.3501 H   0  0  0  0  0  0  0  0  0  0  0  0
   -3.8063    0.2468    0.8576 H   0  0  0  0  0  0  0  0  0  0  0  0
   -4.5600   -0.9463   -0.3872 H   0  0  0  0  0  0  0  0  0  0  0  0
   -0.9878   -0.4113    0.6540 H   0  0  0  0  0  0  0  0  0  0  0  0
    0.5851    3.0144    0.5020 H   0  0  0  0  0  0  0  0  0  0  0  0
   -0.7863    1.8467    2.8478 H   0  0  0  0  0  0  0  0  0  0  0  0
  1  4  2  0
  1  8  1  0
  1  9  1  0
  2  3  1  0
  2  5  2  0
  2 12  1  0
  3  6  2  0
  3 10  1  0
  7 11  1  0
M  END
