C=O.O=CC=O.[H][H]_6
     RDKit          3D

 12  9  0  0  0  0  0  0  0  0999 V2000
   -2.9622   -0.1053   -0.2991 C   0  0  0  0  0  0  0  0  0  0  0  0
   -0.4382    0.8171    1.9773 C   0  0  0  0  0  0  0  0  0  0  0  0
   -0.5652   -0.5915    2.3305 C   0  0  0  0  0  0  0  0  0  0  0  0
   -2.4082    0.9239   -0.0879 O   0  0  0  0  0  0  0  0  0  0  0  0
    0.3279    1.5698    2.5080 O   0  0  0  0  0  0  0  0  0  0  0  0
   -1.3246   -1.3570    1.8079 O   0  0  0  0  0  0  0  0  0  0  0  0
   -1.7216    3.5417   -0.3135 H   0  0  0  0  0  0  0  0  0  0  0  0
   -3.7300   -0.1540   -1.0555 H   0  0  0  0  0  0  0  0  0  0  0  0
   -2.6865   -0.9786    0.2758 H   0  0  0  0  0  0  0  0  0  0  0  0
    0.0655   -0.9899    3.1182 H   0  0  0  0  0  0  0  0  0  0  0  0
   -1.7467    3.8267    0.4089 H   0  0  0  0  0  0  0  0  0  0  0  0
   -1.0596    1.2395    1.1913 H   0  0  0  0  0  0  0  0  0  0  0  0
  1  4  2  0
  1  8  1  0
  1  9  1  0
  2  3  1  0
  2  5  2  0
  2 12  1  0
  3  6  2  0
  3 10  1  0
  7 11  1  0
M  END
