C=O.O=CC=O.[H][H]_15
     RDKit          3D

 12  9  0  0  0  0  0  0  0  0999 V2000
   -3.8836   -0.3175   -0.2792 C   0  0  0  0  0  0  0  0  0  0  0  0
   -1.1605    1.1213    2.2526 C   0  0  0  0  0  0  0  0  0  0  0  0
   -0.3816    0.0927    1.5785 C   0  0  0  0  0  0  0  0  0  0  0  0
   -2.9471   -0.0503    0.3996 O   0  0  0  0  0  0  0  0  0  0  0  0
   -0.7508    1.8497    3.1081 O   0  0  0  0  0  0  0  0  0  0  0  0
    0.7675   -0.1583    1.7953 O   0  0  0  0  0  0  0  0  0  0  0  0
    1.1110    2.6303    1.0124 H   0  0  0  0  0  0  0  0  0  0  0  0
   -4.5407   -1.1227    0.0149 H   0  0  0  0  0  0  0  0  0  0  0  0
   -4.0647    0.2478   -1.1817 H   0  0  0  0  0  0  0  0  0  0  0  0
   -0.8633   -0.5040    0.8117 H   0  0  0  0  0  0  0  0  0  0  0  0
    0.6628    2.6972    0.3813 H   0  0  0  0  0  0  0  0  0  0  0  0
   -2.1982    1.2562    1.9683 H   0  0  0  0  0  0  0  0  0  0  0  0
  1  4  2  0
  1  8  1  0
  1  9  1  0
  2  3  1  0
  2  5  2  0
  2 12  1  0
  3  6  2  0
  3 10  1  0
  7 11  1  0
M  END
