C=O.O=CC=O.[H][H]_7
     RDKit          3D

 12  9  0  0  0  0  0  0  0  0999 V2000
   -2.3316    0.2180   -0.4115 C   0  0  0  0  0  0  0  0  0  0  0  0
   -0.3666    0.6349    2.4822 C   0  0  0  0  0  0  0  0  0  0  0  0
   -0.9725   -0.6535    2.7951 C   0  0  0  0  0  0  0  0  0  0  0  0
   -1.5840    1.0721   -0.0619 O   0  0  0  0  0  0  0  0  0  0  0  0
    0.4022    1.2016    3.2052 O   0  0  0  0  0  0  0  0  0  0  0  0
   -1.7453   -1.2316    2.0848 O   0  0  0  0  0  0  0  0  0  0  0  0
   -2.1848    3.4211   -0.9651 H   0  0  0  0  0  0  0  0  0  0  0  0
   -2.4787   -0.6445    0.2238 H   0  0  0  0  0  0  0  0  0  0  0  0
   -2.8515    0.3140   -1.3521 H   0  0  0  0  0  0  0  0  0  0  0  0
   -0.7160   -1.1356    3.7326 H   0  0  0  0  0  0  0  0  0  0  0  0
   -2.8157    3.4090   -1.4184 H   0  0  0  0  0  0  0  0  0  0  0  0
   -0.6050    1.1368    1.5473 H   0  0  0  0  0  0  0  0  0  0  0  0
  1  4  2  0
  1  8  1  0
  1  9  1  0
  2  3  1  0
  2  5  2  0
  2 12  1  0
  3  6  2  0
  3 10  1  0
  7 11  1  0
M  END
