C=O.O=CC=O.[H][H]_0
     RDKit          3D

 12  9  0  0  0  0  0  0  0  0999 V2000
   -3.2340    0.2142   -0.1544 C   0  0  0  0  0  0  0  0  0  0  0  0
   -0.4908   -0.0478    2.0399 C   0  0  0  0  0  0  0  0  0  0  0  0
   -1.0460    1.2158    2.5090 C   0  0  0  0  0  0  0  0  0  0  0  0
   -2.3840   -0.6050   -0.0234 O   0  0  0  0  0  0  0  0  0  0  0  0
    0.4915   -0.5549    2.5013 O   0  0  0  0  0  0  0  0  0  0  0  0
   -2.0274    1.7357    2.0593 O   0  0  0  0  0  0  0  0  0  0  0  0
   -0.2844    1.4070   -0.7639 H   0  0  0  0  0  0  0  0  0  0  0  0
   -3.2510    1.0658    0.5116 H   0  0  0  0  0  0  0  0  0  0  0  0
   -3.9706    0.1007   -0.9345 H   0  0  0  0  0  0  0  0  0  0  0  0
   -0.5470    1.7342    3.3209 H   0  0  0  0  0  0  0  0  0  0  0  0
   -0.5344    2.0624   -0.4297 H   0  0  0  0  0  0  0  0  0  0  0  0
   -0.9713   -0.5858    1.2259 H   0  0  0  0  0  0  0  0  0  0  0  0
  1  4  2  0
  1  8  1  0
  1  9  1  0
  2  3  1  0
  2  5  2  0
  2 12  1  0
  3  6  2  0
  3 10  1  0
  7 11  1  0
M  END
