C=O.O=CC=O.[H][H]_8
     RDKit          3D

 12  9  0  0  0  0  0  0  0  0999 V2000
   -3.5616   -0.2361    0.0662 C   0  0  0  0  0  0  0  0  0  0  0  0
   -1.3253    0.2860    2.7375 C   0  0  0  0  0  0  0  0  0  0  0  0
   -0.5726    0.9351    1.6712 C   0  0  0  0  0  0  0  0  0  0  0  0
   -3.5981   -0.5342    1.2154 O   0  0  0  0  0  0  0  0  0  0  0  0
   -0.9447    0.2132    3.8711 O   0  0  0  0  0  0  0  0  0  0  0  0
   -0.9383    1.0146    0.5328 O   0  0  0  0  0  0  0  0  0  0  0  0
    1.0678    2.7443   -0.6600 H   0  0  0  0  0  0  0  0  0  0  0  0
   -2.7022    0.3009   -0.3108 H   0  0  0  0  0  0  0  0  0  0  0  0
   -4.3807   -0.5049   -0.5825 H   0  0  0  0  0  0  0  0  0  0  0  0
    0.3870    1.3820    1.9087 H   0  0  0  0  0  0  0  0  0  0  0  0
    0.6100    2.3090   -1.1128 H   0  0  0  0  0  0  0  0  0  0  0  0
   -2.2906   -0.1676    2.5251 H   0  0  0  0  0  0  0  0  0  0  0  0
  1  4  2  0
  1  8  1  0
  1  9  1  0
  2  3  1  0
  2  5  2  0
  2 12  1  0
  3  6  2  0
  3 10  1  0
  7 11  1  0
M  END
