O/C=C(/C=O)\O.[H][H]_3
     RDKit          3D

 12 10  0  0  0  0  0  0  0  0999 V2000
    0.9041    1.1025    0.3556 C   0  0  0  0  0  0  0  0  0  0  0  0
    0.7594    1.4247    1.7529 C   0  0  0  0  0  0  0  0  0  0  0  0
   -0.4284    1.2703    2.3946 C   0  0  0  0  0  0  0  0  0  0  0  0
    0.0111    0.6820   -0.3393 O   0  0  0  0  0  0  0  0  0  0  0  0
    1.8519    1.9048    2.4706 O   0  0  0  0  0  0  0  0  0  0  0  0
   -0.5539    1.5781    3.7154 O   0  0  0  0  0  0  0  0  0  0  0  0
    1.5563    2.0633    3.3936 H   0  0  0  0  0  0  0  0  0  0  0  0
   -2.3992    0.2823   -0.7368 H   0  0  0  0  0  0  0  0  0  0  0  0
    1.8696    1.2417   -0.1134 H   0  0  0  0  0  0  0  0  0  0  0  0
   -1.2845    0.8972    1.8457 H   0  0  0  0  0  0  0  0  0  0  0  0
   -1.4684    1.4136    4.0307 H   0  0  0  0  0  0  0  0  0  0  0  0
   -2.9792    0.3139   -0.2212 H   0  0  0  0  0  0  0  0  0  0  0  0
  1  2  1  0
  1  4  2  0
  1  9  1  0
  2  3  2  0
  2  5  1  0
  3  6  1  0
  3 10  1  0
  5  7  1  0
  6 11  1  0
  8 12  1  0
M  END
