O/C=C(/C=O)\O.[H][H]
     RDKit          3D

 12 10  0  0  0  0  0  0  0  0999 V2000
    1.3764    0.5233    0.4919 C   0  0  0  0  0  0  0  0  0  0  0  0
    0.5252    1.2344    1.4605 C   0  0  0  0  0  0  0  0  0  0  0  0
   -0.2340    0.5682    2.3408 C   0  0  0  0  0  0  0  0  0  0  0  0
    1.4230   -0.7355    0.4546 O   0  0  0  0  0  0  0  0  0  0  0  0
    0.5316    2.6301    1.4335 O   0  0  0  0  0  0  0  0  0  0  0  0
   -1.0355    1.2499    3.2507 O   0  0  0  0  0  0  0  0  0  0  0  0
   -0.0280    3.1913    2.0649 H   0  0  0  0  0  0  0  0  0  0  0  0
   -2.5042    2.3372    0.7409 H   0  0  0  0  0  0  0  0  0  0  0  0
    1.9763    1.0938   -0.2048 H   0  0  0  0  0  0  0  0  0  0  0  0
   -0.2372   -0.5152    2.3587 H   0  0  0  0  0  0  0  0  0  0  0  0
   -1.6078    0.7396    3.9120 H   0  0  0  0  0  0  0  0  0  0  0  0
   -2.3470    1.8572    0.2449 H   0  0  0  0  0  0  0  0  0  0  0  0
  1  2  1  0
  1  4  2  0
  1  9  1  0
  2  3  2  0
  2  5  1  0
  3  6  1  0
  3 10  1  0
  5  7  1  0
  6 11  1  0
  8 12  1  0
M  END
