O/C=C(/C=O)\O.[H][H]_9
     RDKit          3D

 12 10  0  0  0  0  0  0  0  0999 V2000
    1.9603    0.3838    0.8544 C   0  0  0  0  0  0  0  0  0  0  0  0
    0.6937    1.0038    1.1520 C   0  0  0  0  0  0  0  0  0  0  0  0
   -0.1649    0.4586    2.0532 C   0  0  0  0  0  0  0  0  0  0  0  0
    2.3507   -0.6382    1.3647 O   0  0  0  0  0  0  0  0  0  0  0  0
    0.3315    2.1850    0.5096 O   0  0  0  0  0  0  0  0  0  0  0  0
   -1.3596    1.0522    2.3272 O   0  0  0  0  0  0  0  0  0  0  0  0
   -0.5544    2.4463    0.8430 H   0  0  0  0  0  0  0  0  0  0  0  0
   -3.3577    2.8607    1.8169 H   0  0  0  0  0  0  0  0  0  0  0  0
    2.6127    0.8537    0.1296 H   0  0  0  0  0  0  0  0  0  0  0  0
    0.1078   -0.4603    2.5581 H   0  0  0  0  0  0  0  0  0  0  0  0
   -1.8629    0.5399    2.9959 H   0  0  0  0  0  0  0  0  0  0  0  0
   -2.9185    3.4889    1.9440 H   0  0  0  0  0  0  0  0  0  0  0  0
  1  2  1  0
  1  4  2  0
  1  9  1  0
  2  3  2  0
  2  5  1  0
  3  6  1  0
  3 10  1  0
  5  7  1  0
  6 11  1  0
  8 12  1  0
M  END
