O/C=C(/C=O)\O.[H][H]_5
     RDKit          3D

 12 10  0  0  0  0  0  0  0  0999 V2000
    0.0478    1.1751    0.5687 C   0  0  0  0  0  0  0  0  0  0  0  0
    0.3121    1.4937    1.9492 C   0  0  0  0  0  0  0  0  0  0  0  0
   -0.1269    0.6928    2.9554 C   0  0  0  0  0  0  0  0  0  0  0  0
   -0.5659    0.2017    0.2039 O   0  0  0  0  0  0  0  0  0  0  0  0
    1.0308    2.6422    2.2710 O   0  0  0  0  0  0  0  0  0  0  0  0
    0.1287    1.0029    4.2568 O   0  0  0  0  0  0  0  0  0  0  0  0
    1.1054    2.6833    3.2494 H   0  0  0  0  0  0  0  0  0  0  0  0
   -1.7372    1.4979   -2.3206 H   0  0  0  0  0  0  0  0  0  0  0  0
    0.4174    1.8421   -0.1995 H   0  0  0  0  0  0  0  0  0  0  0  0
   -0.6869   -0.2030    2.7155 H   0  0  0  0  0  0  0  0  0  0  0  0
   -0.2518    0.3301    4.8612 H   0  0  0  0  0  0  0  0  0  0  0  0
   -1.8346    0.8155   -1.9624 H   0  0  0  0  0  0  0  0  0  0  0  0
  1  2  1  0
  1  4  2  0
  1  9  1  0
  2  3  2  0
  2  5  1  0
  3  6  1  0
  3 10  1  0
  5  7  1  0
  6 11  1  0
  8 12  1  0
M  END
