O/C=C(/C=O)\O.[H][H]_12
     RDKit          3D

 12 10  0  0  0  0  0  0  0  0999 V2000
    1.3676    0.9902    0.7786 C   0  0  0  0  0  0  0  0  0  0  0  0
    0.0493    0.7306    1.2918 C   0  0  0  0  0  0  0  0  0  0  0  0
   -0.2577    0.8046    2.6132 C   0  0  0  0  0  0  0  0  0  0  0  0
    1.6048    0.9159   -0.4001 O   0  0  0  0  0  0  0  0  0  0  0  0
   -0.9101    0.3963    0.3504 O   0  0  0  0  0  0  0  0  0  0  0  0
   -1.5115    0.5570    3.0741 O   0  0  0  0  0  0  0  0  0  0  0  0
   -0.4823    0.3990   -0.5354 H   0  0  0  0  0  0  0  0  0  0  0  0
   -1.2908    3.4197    1.4273 H   0  0  0  0  0  0  0  0  0  0  0  0
    2.1774    1.2596    1.4420 H   0  0  0  0  0  0  0  0  0  0  0  0
    0.5167    1.0689    3.3199 H   0  0  0  0  0  0  0  0  0  0  0  0
   -1.5649    0.6550    4.0509 H   0  0  0  0  0  0  0  0  0  0  0  0
   -1.8594    2.9775    1.1361 H   0  0  0  0  0  0  0  0  0  0  0  0
  1  2  1  0
  1  4  2  0
  1  9  1  0
  2  3  2  0
  2  5  1  0
  3  6  1  0
  3 10  1  0
  5  7  1  0
  6 11  1  0
  8 12  1  0
M  END
