O/C=C(/C=O)\O.[H][H]_6
     RDKit          3D

 12 10  0  0  0  0  0  0  0  0999 V2000
   -0.3959    1.5836    0.6953 C   0  0  0  0  0  0  0  0  0  0  0  0
    0.2535    1.5669    1.9819 C   0  0  0  0  0  0  0  0  0  0  0  0
   -0.2321    0.8205    3.0084 C   0  0  0  0  0  0  0  0  0  0  0  0
   -1.3930    0.9561    0.4320 O   0  0  0  0  0  0  0  0  0  0  0  0
    1.4017    2.3270    2.1896 O   0  0  0  0  0  0  0  0  0  0  0  0
    0.3891    0.8120    4.2205 O   0  0  0  0  0  0  0  0  0  0  0  0
    1.6904    2.1843    3.1173 H   0  0  0  0  0  0  0  0  0  0  0  0
   -1.5912    0.5025   -2.0862 H   0  0  0  0  0  0  0  0  0  0  0  0
    0.0264    2.1931   -0.0932 H   0  0  0  0  0  0  0  0  0  0  0  0
   -1.1249    0.2258    2.8569 H   0  0  0  0  0  0  0  0  0  0  0  0
   -0.0805    0.2276    4.8536 H   0  0  0  0  0  0  0  0  0  0  0  0
   -1.1047    0.7748   -2.6274 H   0  0  0  0  0  0  0  0  0  0  0  0
  1  2  1  0
  1  4  2  0
  1  9  1  0
  2  3  2  0
  2  5  1  0
  3  6  1  0
  3 10  1  0
  5  7  1  0
  6 11  1  0
  8 12  1  0
M  END
