O/C=C(/C=O)\O.[H][H]_1
     RDKit          3D

 12 10  0  0  0  0  0  0  0  0999 V2000
    0.7990    1.2111    0.6106 C   0  0  0  0  0  0  0  0  0  0  0  0
    0.4554    1.2170    2.0050 C   0  0  0  0  0  0  0  0  0  0  0  0
   -0.8208    1.2519    2.4624 C   0  0  0  0  0  0  0  0  0  0  0  0
    1.9495    1.1792    0.2542 O   0  0  0  0  0  0  0  0  0  0  0  0
    1.5061    1.1847    2.9098 O   0  0  0  0  0  0  0  0  0  0  0  0
   -1.0909    1.2559    3.7889 O   0  0  0  0  0  0  0  0  0  0  0  0
    2.3397    1.1628    2.3919 H   0  0  0  0  0  0  0  0  0  0  0  0
   -2.7389    0.5979   -0.9237 H   0  0  0  0  0  0  0  0  0  0  0  0
    0.0322    1.2355   -0.1509 H   0  0  0  0  0  0  0  0  0  0  0  0
   -1.6541    1.2774    1.7771 H   0  0  0  0  0  0  0  0  0  0  0  0
   -0.2341    1.2304    4.2712 H   0  0  0  0  0  0  0  0  0  0  0  0
   -2.7043    1.3704   -0.8479 H   0  0  0  0  0  0  0  0  0  0  0  0
  1  2  1  0
  1  4  2  0
  1  9  1  0
  2  3  2  0
  2  5  1  0
  3  6  1  0
  3 10  1  0
  5  7  1  0
  6 11  1  0
  8 12  1  0
M  END
