O/C=C(/C=O)\O.[H][H]_11
     RDKit          3D

 12 10  0  0  0  0  0  0  0  0999 V2000
    0.9390    0.8235    0.5477 C   0  0  0  0  0  0  0  0  0  0  0  0
    0.3506    1.3486    1.7506 C   0  0  0  0  0  0  0  0  0  0  0  0
   -0.4410    0.6090    2.5704 C   0  0  0  0  0  0  0  0  0  0  0  0
    1.6345    1.5085   -0.1581 O   0  0  0  0  0  0  0  0  0  0  0  0
    0.6374    2.6735    2.0344 O   0  0  0  0  0  0  0  0  0  0  0  0
   -0.9870    1.1275    3.7012 O   0  0  0  0  0  0  0  0  0  0  0  0
    1.2212    3.0188    1.3219 H   0  0  0  0  0  0  0  0  0  0  0  0
   -2.1052    1.2277    0.0344 H   0  0  0  0  0  0  0  0  0  0  0  0
    0.7674   -0.2009    0.2483 H   0  0  0  0  0  0  0  0  0  0  0  0
   -0.6442   -0.4222    2.3168 H   0  0  0  0  0  0  0  0  0  0  0  0
   -1.5326    0.4632    4.1783 H   0  0  0  0  0  0  0  0  0  0  0  0
   -2.0013    1.9970    0.0028 H   0  0  0  0  0  0  0  0  0  0  0  0
  1  2  1  0
  1  4  2  0
  1  9  1  0
  2  3  2  0
  2  5  1  0
  3  6  1  0
  3 10  1  0
  5  7  1  0
  6 11  1  0
  8 12  1  0
M  END
