O/C=C(/C=O)\O.[H][H]_2
     RDKit          3D

 12 10  0  0  0  0  0  0  0  0999 V2000
    0.9318    0.7826    0.3916 C   0  0  0  0  0  0  0  0  0  0  0  0
    0.5154    1.4265    1.6119 C   0  0  0  0  0  0  0  0  0  0  0  0
   -0.3595    0.8288    2.4628 C   0  0  0  0  0  0  0  0  0  0  0  0
    0.5473   -0.3045    0.0340 O   0  0  0  0  0  0  0  0  0  0  0  0
    1.0121    2.6864    1.9361 O   0  0  0  0  0  0  0  0  0  0  0  0
   -0.7476    1.4467    3.6128 O   0  0  0  0  0  0  0  0  0  0  0  0
    0.6127    2.9533    2.7926 H   0  0  0  0  0  0  0  0  0  0  0  0
   -2.2021    1.4183    0.0793 H   0  0  0  0  0  0  0  0  0  0  0  0
    1.6316    1.2957   -0.2554 H   0  0  0  0  0  0  0  0  0  0  0  0
   -0.7514   -0.1517    2.2199 H   0  0  0  0  0  0  0  0  0  0  0  0
   -1.3803    0.8905    4.1160 H   0  0  0  0  0  0  0  0  0  0  0  0
   -1.9712    0.9018   -0.4532 H   0  0  0  0  0  0  0  0  0  0  0  0
  1  2  1  0
  1  4  2  0
  1  9  1  0
  2  3  2  0
  2  5  1  0
  3  6  1  0
  3 10  1  0
  5  7  1  0
  6 11  1  0
  8 12  1  0
M  END
