O/C=C(/C=O)\O.[H][H]_8
     RDKit          3D

 12 10  0  0  0  0  0  0  0  0999 V2000
    0.9468    1.2025    0.5966 C   0  0  0  0  0  0  0  0  0  0  0  0
    0.1819    0.7960    1.7500 C   0  0  0  0  0  0  0  0  0  0  0  0
   -0.1900    1.7081    2.6858 C   0  0  0  0  0  0  0  0  0  0  0  0
    1.2941    2.3395    0.3853 O   0  0  0  0  0  0  0  0  0  0  0  0
   -0.2049   -0.5328    1.9519 O   0  0  0  0  0  0  0  0  0  0  0  0
   -0.9091    1.3630    3.7806 O   0  0  0  0  0  0  0  0  0  0  0  0
    0.0986   -1.0945    1.2090 H   0  0  0  0  0  0  0  0  0  0  0  0
   -1.6197    2.7170   -0.0921 H   0  0  0  0  0  0  0  0  0  0  0  0
    1.2373    0.4640   -0.1375 H   0  0  0  0  0  0  0  0  0  0  0  0
    0.0809    2.7513    2.5831 H   0  0  0  0  0  0  0  0  0  0  0  0
   -1.0791    0.3951    3.7390 H   0  0  0  0  0  0  0  0  0  0  0  0
   -1.9980    2.0652    0.0969 H   0  0  0  0  0  0  0  0  0  0  0  0
  1  2  1  0
  1  4  2  0
  1  9  1  0
  2  3  2  0
  2  5  1  0
  3  6  1  0
  3 10  1  0
  5  7  1  0
  6 11  1  0
  8 12  1  0
M  END
