OC/C=C/OO_14
     RDKit          3D

 12 11  0  0  0  0  0  0  0  0999 V2000
    0.8757    0.0075    1.3165 C   0  0  0  0  0  0  0  0  0  0  0  0
   -0.3457    0.2236    0.8413 C   0  0  0  0  0  0  0  0  0  0  0  0
   -0.5753    0.8350   -0.4941 C   0  0  0  0  0  0  0  0  0  0  0  0
    1.1439   -0.5283    2.5415 O   0  0  0  0  0  0  0  0  0  0  0  0
    2.5904   -0.6303    2.7384 O   0  0  0  0  0  0  0  0  0  0  0  0
    0.6106    0.9130   -1.2610 O   0  0  0  0  0  0  0  0  0  0  0  0
    2.7524   -1.5882    2.7674 H   0  0  0  0  0  0  0  0  0  0  0  0
   -0.9763    1.8512   -0.3747 H   0  0  0  0  0  0  0  0  0  0  0  0
    1.7467    0.2616    0.7273 H   0  0  0  0  0  0  0  0  0  0  0  0
   -1.3143    0.2485   -1.0573 H   0  0  0  0  0  0  0  0  0  0  0  0
    0.4456    1.3229   -2.1393 H   0  0  0  0  0  0  0  0  0  0  0  0
   -1.1823   -0.0340    1.4679 H   0  0  0  0  0  0  0  0  0  0  0  0
  1  2  2  0
  1  4  1  0
  1  9  1  0
  2  3  1  0
  2 12  1  0
  3  6  1  0
  3  8  1  0
  3 10  1  0
  4  5  1  0
  5  7  1  0
  6 11  1  0
M  END
