OC/C=C/OO
     RDKit          3D

 12 11  0  0  0  0  0  0  0  0999 V2000
    0.9768    0.0991    1.1250 C   0  0  0  0  0  0  0  0  0  0  0  0
   -0.2596    0.0471    0.6341 C   0  0  0  0  0  0  0  0  0  0  0  0
   -0.6936    0.9332   -0.4943 C   0  0  0  0  0  0  0  0  0  0  0  0
    1.3406   -0.7312    2.1796 O   0  0  0  0  0  0  0  0  0  0  0  0
    2.5817   -0.6847    2.6793 O   0  0  0  0  0  0  0  0  0  0  0  0
   -0.0315    0.5762   -1.6775 O   0  0  0  0  0  0  0  0  0  0  0  0
    2.5826   -1.3586    3.4049 H   0  0  0  0  0  0  0  0  0  0  0  0
   -0.5115    2.0025   -0.2389 H   0  0  0  0  0  0  0  0  0  0  0  0
    1.7047    0.7863    0.7093 H   0  0  0  0  0  0  0  0  0  0  0  0
   -1.7854    0.8062   -0.6507 H   0  0  0  0  0  0  0  0  0  0  0  0
    0.8451    1.0420   -1.6682 H   0  0  0  0  0  0  0  0  0  0  0  0
   -0.9784   -0.6357    1.0712 H   0  0  0  0  0  0  0  0  0  0  0  0
  1  2  2  0
  1  4  1  0
  1  9  1  0
  2  3  1  0
  2 12  1  0
  3  6  1  0
  3  8  1  0
  3 10  1  0
  4  5  1  0
  5  7  1  0
  6 11  1  0
M  END
