OC/C=C/OO_0
     RDKit          3D

 12 11  0  0  0  0  0  0  0  0999 V2000
    0.8910    0.7315    1.6576 C   0  0  0  0  0  0  0  0  0  0  0  0
    0.4609    0.1952    0.5218 C   0  0  0  0  0  0  0  0  0  0  0  0
   -0.4592    0.8877   -0.4111 C   0  0  0  0  0  0  0  0  0  0  0  0
    1.7338    0.0819    2.5114 O   0  0  0  0  0  0  0  0  0  0  0  0
    1.9953   -1.2825    2.0570 O   0  0  0  0  0  0  0  0  0  0  0  0
   -0.6142    0.2152   -1.6418 O   0  0  0  0  0  0  0  0  0  0  0  0
    1.7067   -1.8318    2.8050 H   0  0  0  0  0  0  0  0  0  0  0  0
   -0.1149    1.9113   -0.6125 H   0  0  0  0  0  0  0  0  0  0  0  0
    0.5851    1.7263    1.9477 H   0  0  0  0  0  0  0  0  0  0  0  0
   -1.4598    0.9683    0.0330 H   0  0  0  0  0  0  0  0  0  0  0  0
    0.2584    0.0797   -2.0720 H   0  0  0  0  0  0  0  0  0  0  0  0
    0.7884   -0.8003    0.2777 H   0  0  0  0  0  0  0  0  0  0  0  0
  1  2  2  0
  1  4  1  0
  1  9  1  0
  2  3  1  0
  2 12  1  0
  3  6  1  0
  3  8  1  0
  3 10  1  0
  4  5  1  0
  5  7  1  0
  6 11  1  0
M  END
