OC/C=C/OO_10
     RDKit          3D

 12 11  0  0  0  0  0  0  0  0999 V2000
    0.8156    0.0269    1.4114 C   0  0  0  0  0  0  0  0  0  0  0  0
    0.1002   -0.0867    0.2966 C   0  0  0  0  0  0  0  0  0  0  0  0
   -0.4140    1.0825   -0.4559 C   0  0  0  0  0  0  0  0  0  0  0  0
    1.2772   -1.0371    2.1291 O   0  0  0  0  0  0  0  0  0  0  0  0
    2.0484   -0.5761    3.2855 O   0  0  0  0  0  0  0  0  0  0  0  0
   -0.8529    0.7653   -1.7590 O   0  0  0  0  0  0  0  0  0  0  0  0
    2.9386   -0.9325    3.1276 H   0  0  0  0  0  0  0  0  0  0  0  0
    0.3503    1.8682   -0.5278 H   0  0  0  0  0  0  0  0  0  0  0  0
    1.0651    0.9979    1.8141 H   0  0  0  0  0  0  0  0  0  0  0  0
   -1.2734    1.5212    0.0678 H   0  0  0  0  0  0  0  0  0  0  0  0
   -0.1351    0.3271   -2.2668 H   0  0  0  0  0  0  0  0  0  0  0  0
   -0.1484   -1.0743   -0.0488 H   0  0  0  0  0  0  0  0  0  0  0  0
  1  2  2  0
  1  4  1  0
  1  9  1  0
  2  3  1  0
  2 12  1  0
  3  6  1  0
  3  8  1  0
  3 10  1  0
  4  5  1  0
  5  7  1  0
  6 11  1  0
M  END
