OC/C=C/OO_11
     RDKit          3D

 12 11  0  0  0  0  0  0  0  0999 V2000
    0.9140   -0.0444    1.1686 C   0  0  0  0  0  0  0  0  0  0  0  0
   -0.2565   -0.0425    0.5384 C   0  0  0  0  0  0  0  0  0  0  0  0
   -0.6506    1.0324   -0.4066 C   0  0  0  0  0  0  0  0  0  0  0  0
    1.3331   -1.0440    1.9967 O   0  0  0  0  0  0  0  0  0  0  0  0
    2.6556   -0.7315    2.5426 O   0  0  0  0  0  0  0  0  0  0  0  0
   -0.1893    0.8184   -1.7220 O   0  0  0  0  0  0  0  0  0  0  0  0
    2.5032   -0.6753    3.5007 H   0  0  0  0  0  0  0  0  0  0  0  0
   -0.2772    2.0069   -0.0637 H   0  0  0  0  0  0  0  0  0  0  0  0
    1.6151    0.7683    1.0435 H   0  0  0  0  0  0  0  0  0  0  0  0
   -1.7435    1.1221   -0.4669 H   0  0  0  0  0  0  0  0  0  0  0  0
    0.7616    0.5732   -1.7180 H   0  0  0  0  0  0  0  0  0  0  0  0
   -0.8939   -0.9011    0.6604 H   0  0  0  0  0  0  0  0  0  0  0  0
  1  2  2  0
  1  4  1  0
  1  9  1  0
  2  3  1  0
  2 12  1  0
  3  6  1  0
  3  8  1  0
  3 10  1  0
  4  5  1  0
  5  7  1  0
  6 11  1  0
M  END
