OC/C=C/OO_12
     RDKit          3D

 12 11  0  0  0  0  0  0  0  0999 V2000
    0.7997    0.0970    1.3184 C   0  0  0  0  0  0  0  0  0  0  0  0
   -0.3275    0.0370    0.6165 C   0  0  0  0  0  0  0  0  0  0  0  0
   -0.6361    0.9917   -0.4776 C   0  0  0  0  0  0  0  0  0  0  0  0
    1.1337   -0.7868    2.3024 O   0  0  0  0  0  0  0  0  0  0  0  0
    2.4485   -0.4580    2.8574 O   0  0  0  0  0  0  0  0  0  0  0  0
   -0.0424    0.6454   -1.7088 O   0  0  0  0  0  0  0  0  0  0  0  0
    2.9836   -1.2468    2.6682 H   0  0  0  0  0  0  0  0  0  0  0  0
   -0.3117    2.0065   -0.2095 H   0  0  0  0  0  0  0  0  0  0  0  0
    1.5263    0.8766    1.1396 H   0  0  0  0  0  0  0  0  0  0  0  0
   -1.7183    1.0488   -0.6561 H   0  0  0  0  0  0  0  0  0  0  0  0
    0.9133    0.4530   -1.5892 H   0  0  0  0  0  0  0  0  0  0  0  0
   -0.9978   -0.7821    0.8125 H   0  0  0  0  0  0  0  0  0  0  0  0
  1  2  2  0
  1  4  1  0
  1  9  1  0
  2  3  1  0
  2 12  1  0
  3  6  1  0
  3  8  1  0
  3 10  1  0
  4  5  1  0
  5  7  1  0
  6 11  1  0
M  END
