OC/C=C/OO_4
     RDKit          3D

 12 11  0  0  0  0  0  0  0  0999 V2000
    0.8577   -0.7725    0.7084 C   0  0  0  0  0  0  0  0  0  0  0  0
    0.1382    0.3384    0.8157 C   0  0  0  0  0  0  0  0  0  0  0  0
   -0.6038    0.9289   -0.3271 C   0  0  0  0  0  0  0  0  0  0  0  0
    1.5794   -1.3004    1.7391 O   0  0  0  0  0  0  0  0  0  0  0  0
    1.5344   -0.4365    2.9170 O   0  0  0  0  0  0  0  0  0  0  0  0
    0.1779    1.8018   -1.1116 O   0  0  0  0  0  0  0  0  0  0  0  0
    2.4702   -0.2486    3.0997 H   0  0  0  0  0  0  0  0  0  0  0  0
   -1.4674    1.5099    0.0239 H   0  0  0  0  0  0  0  0  0  0  0  0
    0.8967   -1.3175   -0.2241 H   0  0  0  0  0  0  0  0  0  0  0  0
   -1.0043    0.1410   -0.9790 H   0  0  0  0  0  0  0  0  0  0  0  0
    1.0332    1.3800   -1.3471 H   0  0  0  0  0  0  0  0  0  0  0  0
    0.1593    0.8578    1.7589 H   0  0  0  0  0  0  0  0  0  0  0  0
  1  2  2  0
  1  4  1  0
  1  9  1  0
  2  3  1  0
  2 12  1  0
  3  6  1  0
  3  8  1  0
  3 10  1  0
  4  5  1  0
  5  7  1  0
  6 11  1  0
M  END
