OC/C=C/OO_2
     RDKit          3D

 12 11  0  0  0  0  0  0  0  0999 V2000
    1.0423   -0.6669    0.6319 C   0  0  0  0  0  0  0  0  0  0  0  0
    0.1228    0.2763    0.7947 C   0  0  0  0  0  0  0  0  0  0  0  0
   -0.6211    0.8632   -0.3492 C   0  0  0  0  0  0  0  0  0  0  0  0
    1.7323   -1.2297    1.6665 O   0  0  0  0  0  0  0  0  0  0  0  0
    1.4208   -0.5717    2.9344 O   0  0  0  0  0  0  0  0  0  0  0  0
    0.2129    1.2410   -1.4212 O   0  0  0  0  0  0  0  0  0  0  0  0
    2.2910   -0.2976    3.2694 H   0  0  0  0  0  0  0  0  0  0  0  0
   -1.2098    1.7392   -0.0425 H   0  0  0  0  0  0  0  0  0  0  0  0
    1.2843   -1.0363   -0.3556 H   0  0  0  0  0  0  0  0  0  0  0  0
   -1.3326    0.1298   -0.7504 H   0  0  0  0  0  0  0  0  0  0  0  0
    0.9229    1.8420   -1.1056 H   0  0  0  0  0  0  0  0  0  0  0  0
   -0.0943    0.5930    1.8015 H   0  0  0  0  0  0  0  0  0  0  0  0
  1  2  2  0
  1  4  1  0
  1  9  1  0
  2  3  1  0
  2 12  1  0
  3  6  1  0
  3  8  1  0
  3 10  1  0
  4  5  1  0
  5  7  1  0
  6 11  1  0
M  END
