OC/C=C/OO_6
     RDKit          3D

 12 11  0  0  0  0  0  0  0  0999 V2000
    1.4959    0.2642    0.9833 C   0  0  0  0  0  0  0  0  0  0  0  0
    0.1772    0.2072    0.8465 C   0  0  0  0  0  0  0  0  0  0  0  0
   -0.5260    0.7565   -0.3430 C   0  0  0  0  0  0  0  0  0  0  0  0
    2.1619   -0.2028    2.0793 O   0  0  0  0  0  0  0  0  0  0  0  0
    1.2546   -0.8776    3.0047 O   0  0  0  0  0  0  0  0  0  0  0  0
    0.3341    0.9235   -1.4529 O   0  0  0  0  0  0  0  0  0  0  0  0
    1.6169   -1.7777    3.0613 H   0  0  0  0  0  0  0  0  0  0  0  0
   -0.9626    1.7343   -0.0960 H   0  0  0  0  0  0  0  0  0  0  0  0
    2.1071    0.6994    0.2036 H   0  0  0  0  0  0  0  0  0  0  0  0
   -1.3481    0.0904   -0.6392 H   0  0  0  0  0  0  0  0  0  0  0  0
   -0.1481    1.2803   -2.2320 H   0  0  0  0  0  0  0  0  0  0  0  0
   -0.3914   -0.2153    1.6584 H   0  0  0  0  0  0  0  0  0  0  0  0
  1  2  2  0
  1  4  1  0
  1  9  1  0
  2  3  1  0
  2 12  1  0
  3  6  1  0
  3  8  1  0
  3 10  1  0
  4  5  1  0
  5  7  1  0
  6 11  1  0
M  END
