OC/C=C/OO_7
     RDKit          3D

 12 11  0  0  0  0  0  0  0  0999 V2000
    0.9044   -0.0177    1.1729 C   0  0  0  0  0  0  0  0  0  0  0  0
   -0.2639    0.5174    0.8358 C   0  0  0  0  0  0  0  0  0  0  0  0
   -0.6783    0.6723   -0.5818 C   0  0  0  0  0  0  0  0  0  0  0  0
    1.3231   -0.2007    2.4582 O   0  0  0  0  0  0  0  0  0  0  0  0
    2.6437   -0.8322    2.4729 O   0  0  0  0  0  0  0  0  0  0  0  0
    0.3906    0.9937   -1.4432 O   0  0  0  0  0  0  0  0  0  0  0  0
    2.4829   -1.6955    2.8892 H   0  0  0  0  0  0  0  0  0  0  0  0
   -1.4567    1.4401   -0.6932 H   0  0  0  0  0  0  0  0  0  0  0  0
    1.6076   -0.3354    0.4154 H   0  0  0  0  0  0  0  0  0  0  0  0
   -1.1049   -0.2683   -0.9540 H   0  0  0  0  0  0  0  0  0  0  0  0
    0.8535    1.8005   -1.1278 H   0  0  0  0  0  0  0  0  0  0  0  0
   -0.9305    0.8084    1.6295 H   0  0  0  0  0  0  0  0  0  0  0  0
  1  2  2  0
  1  4  1  0
  1  9  1  0
  2  3  1  0
  2 12  1  0
  3  6  1  0
  3  8  1  0
  3 10  1  0
  4  5  1  0
  5  7  1  0
  6 11  1  0
M  END
