OC/C=C/OO_9
     RDKit          3D

 12 11  0  0  0  0  0  0  0  0999 V2000
    1.0252    0.0317    1.2769 C   0  0  0  0  0  0  0  0  0  0  0  0
    0.2265   -0.0853    0.2207 C   0  0  0  0  0  0  0  0  0  0  0  0
   -0.4589    1.0705   -0.4056 C   0  0  0  0  0  0  0  0  0  0  0  0
    1.6573   -1.0209    1.8708 O   0  0  0  0  0  0  0  0  0  0  0  0
    2.4438   -0.5623    3.0176 O   0  0  0  0  0  0  0  0  0  0  0  0
   -1.0305    0.7737   -1.6611 O   0  0  0  0  0  0  0  0  0  0  0  0
    2.0301   -1.0088    3.7751 H   0  0  0  0  0  0  0  0  0  0  0  0
    0.2330    1.9149   -0.5289 H   0  0  0  0  0  0  0  0  0  0  0  0
    1.2197    0.9972    1.7212 H   0  0  0  0  0  0  0  0  0  0  0  0
   -1.2765    1.4200    0.2382 H   0  0  0  0  0  0  0  0  0  0  0  0
   -0.3492    0.4207   -2.2744 H   0  0  0  0  0  0  0  0  0  0  0  0
    0.0509   -1.0690   -0.1768 H   0  0  0  0  0  0  0  0  0  0  0  0
  1  2  2  0
  1  4  1  0
  1  9  1  0
  2  3  1  0
  2 12  1  0
  3  6  1  0
  3  8  1  0
  3 10  1  0
  4  5  1  0
  5  7  1  0
  6 11  1  0
M  END
