OCC#CO.O_16
     RDKit          3D

 12 10  0  0  0  0  0  0  0  0999 V2000
   -0.5278    0.8045    2.0676 C   0  0  0  0  0  0  0  0  0  0  0  0
   -0.5714    1.7957    1.0531 C   0  0  0  0  0  0  0  0  0  0  0  0
   -0.5931    2.6300    0.1651 C   0  0  0  0  0  0  0  0  0  0  0  0
    0.1319   -0.3987    1.7232 O   0  0  0  0  0  0  0  0  0  0  0  0
   -2.0015   -2.2303    0.8938 O   0  0  0  0  0  0  0  0  0  0  0  0
   -0.6094    3.5257   -0.7941 O   0  0  0  0  0  0  0  0  0  0  0  0
   -1.2882   -1.6158    1.1593 H   0  0  0  0  0  0  0  0  0  0  0  0
   -1.5504    0.5254    2.3574 H   0  0  0  0  0  0  0  0  0  0  0  0
   -0.0504    1.2040    2.9738 H   0  0  0  0  0  0  0  0  0  0  0  0
   -1.6847   -3.1173    1.1333 H   0  0  0  0  0  0  0  0  0  0  0  0
   -1.2043    3.2696   -1.5325 H   0  0  0  0  0  0  0  0  0  0  0  0
    1.0251   -0.1977    1.3704 H   0  0  0  0  0  0  0  0  0  0  0  0
  1  2  1  0
  1  4  1  0
  1  8  1  0
  1  9  1  0
  2  3  3  0
  3  6  1  0
  4 12  1  0
  5  7  1  0
  5 10  1  0
  6 11  1  0
M  END
