OCC#CO.O_15
     RDKit          3D

 12 10  0  0  0  0  0  0  0  0999 V2000
   -0.5773    0.8151    2.0953 C   0  0  0  0  0  0  0  0  0  0  0  0
   -0.6796    1.7972    1.0763 C   0  0  0  0  0  0  0  0  0  0  0  0
   -0.7504    2.6242    0.1839 C   0  0  0  0  0  0  0  0  0  0  0  0
    0.1893   -0.3289    1.7710 O   0  0  0  0  0  0  0  0  0  0  0  0
   -1.7584   -2.2882    0.7895 O   0  0  0  0  0  0  0  0  0  0  0  0
   -0.8193    3.5126   -0.7797 O   0  0  0  0  0  0  0  0  0  0  0  0
   -1.4041   -3.1538    1.0528 H   0  0  0  0  0  0  0  0  0  0  0  0
   -1.5793    0.4515    2.3618 H   0  0  0  0  0  0  0  0  0  0  0  0
   -0.1571    1.2549    3.0111 H   0  0  0  0  0  0  0  0  0  0  0  0
   -1.1074   -1.6303    1.1058 H   0  0  0  0  0  0  0  0  0  0  0  0
   -1.3530    3.1951   -1.5409 H   0  0  0  0  0  0  0  0  0  0  0  0
    1.0725   -0.0543    1.4436 H   0  0  0  0  0  0  0  0  0  0  0  0
  1  2  1  0
  1  4  1  0
  1  8  1  0
  1  9  1  0
  2  3  3  0
  3  6  1  0
  4 12  1  0
  5  7  1  0
  5 10  1  0
  6 11  1  0
M  END
