OCC#CO.O_18
     RDKit          3D

 12 10  0  0  0  0  0  0  0  0999 V2000
   -0.1557    0.7860    1.8543 C   0  0  0  0  0  0  0  0  0  0  0  0
   -0.6037    1.8174    0.9888 C   0  0  0  0  0  0  0  0  0  0  0  0
   -1.0144    2.6933    0.2476 C   0  0  0  0  0  0  0  0  0  0  0  0
   -1.1157   -0.1988    2.1864 O   0  0  0  0  0  0  0  0  0  0  0  0
   -0.4722   -2.5213    0.5198 O   0  0  0  0  0  0  0  0  0  0  0  0
   -1.4640    3.6369   -0.5461 O   0  0  0  0  0  0  0  0  0  0  0  0
   -0.7863   -3.2929    1.0199 H   0  0  0  0  0  0  0  0  0  0  0  0
    0.2279    1.2126    2.7920 H   0  0  0  0  0  0  0  0  0  0  0  0
    0.6875    0.2539    1.3920 H   0  0  0  0  0  0  0  0  0  0  0  0
   -0.6964   -1.7432    1.0684 H   0  0  0  0  0  0  0  0  0  0  0  0
   -1.5972    3.3181   -1.4657 H   0  0  0  0  0  0  0  0  0  0  0  0
   -1.9340    0.2331    2.5127 H   0  0  0  0  0  0  0  0  0  0  0  0
  1  2  1  0
  1  4  1  0
  1  8  1  0
  1  9  1  0
  2  3  3  0
  3  6  1  0
  4 12  1  0
  5  7  1  0
  5 10  1  0
  6 11  1  0
M  END
