OCC#CO.O
     RDKit          3D

 12 10  0  0  0  0  0  0  0  0999 V2000
   -0.0211    0.9084    2.5055 C   0  0  0  0  0  0  0  0  0  0  0  0
   -0.4916    1.4923    1.2455 C   0  0  0  0  0  0  0  0  0  0  0  0
   -0.8787    1.9689    0.2082 C   0  0  0  0  0  0  0  0  0  0  0  0
   -1.0871    0.2977    3.1782 O   0  0  0  0  0  0  0  0  0  0  0  0
   -1.1257   -1.5482   -0.4036 O   0  0  0  0  0  0  0  0  0  0  0  0
   -1.3178    2.5069   -0.9673 O   0  0  0  0  0  0  0  0  0  0  0  0
   -0.3686   -1.5155    0.2338 H   0  0  0  0  0  0  0  0  0  0  0  0
    0.3921    1.7171    3.1429 H   0  0  0  0  0  0  0  0  0  0  0  0
    0.7892    0.1740    2.2990 H   0  0  0  0  0  0  0  0  0  0  0  0
   -1.8809   -1.1358    0.0866 H   0  0  0  0  0  0  0  0  0  0  0  0
   -1.6907    1.9053   -1.6908 H   0  0  0  0  0  0  0  0  0  0  0  0
   -1.2433   -0.5760    2.7323 H   0  0  0  0  0  0  0  0  0  0  0  0
  1  2  1  0
  1  4  1  0
  1  8  1  0
  1  9  1  0
  2  3  3  0
  3  6  1  0
  4 12  1  0
  5  7  1  0
  5 10  1  0
  6 11  1  0
M  END
