OCC#CO.O_2
     RDKit          3D

 12 10  0  0  0  0  0  0  0  0999 V2000
    0.0077    1.3033    2.8354 C   0  0  0  0  0  0  0  0  0  0  0  0
   -0.4101    1.3644    1.4808 C   0  0  0  0  0  0  0  0  0  0  0  0
   -0.7960    1.3405    0.3252 C   0  0  0  0  0  0  0  0  0  0  0  0
   -0.7076    0.4015    3.6564 O   0  0  0  0  0  0  0  0  0  0  0  0
   -1.4391   -1.6982   -0.6467 O   0  0  0  0  0  0  0  0  0  0  0  0
   -1.2208    1.2417   -0.9140 O   0  0  0  0  0  0  0  0  0  0  0  0
   -1.7312   -2.0229   -1.5146 H   0  0  0  0  0  0  0  0  0  0  0  0
   -0.0901    2.2910    3.3061 H   0  0  0  0  0  0  0  0  0  0  0  0
    1.0723    1.0352    2.8948 H   0  0  0  0  0  0  0  0  0  0  0  0
   -1.3678   -0.7275   -0.7411 H   0  0  0  0  0  0  0  0  0  0  0  0
   -1.4161    2.1212   -1.3041 H   0  0  0  0  0  0  0  0  0  0  0  0
   -0.8255   -0.4550    3.1920 H   0  0  0  0  0  0  0  0  0  0  0  0
  1  2  1  0
  1  4  1  0
  1  8  1  0
  1  9  1  0
  2  3  3  0
  3  6  1  0
  4 12  1  0
  5  7  1  0
  5 10  1  0
  6 11  1  0
M  END
