OCC#CO.O_19
     RDKit          3D

 12 10  0  0  0  0  0  0  0  0999 V2000
   -0.1986    0.7579    1.7172 C   0  0  0  0  0  0  0  0  0  0  0  0
   -0.6304    1.8593    0.9337 C   0  0  0  0  0  0  0  0  0  0  0  0
   -1.0275    2.7972    0.2643 C   0  0  0  0  0  0  0  0  0  0  0  0
   -1.1903   -0.2010    2.0329 O   0  0  0  0  0  0  0  0  0  0  0  0
   -0.2745   -2.7055    0.8184 O   0  0  0  0  0  0  0  0  0  0  0  0
   -1.4623    3.8086   -0.4503 O   0  0  0  0  0  0  0  0  0  0  0  0
   -0.8420   -3.4033    1.1872 H   0  0  0  0  0  0  0  0  0  0  0  0
    0.2418    1.1091    2.6611 H   0  0  0  0  0  0  0  0  0  0  0  0
    0.5992    0.2173    1.1888 H   0  0  0  0  0  0  0  0  0  0  0  0
   -0.5891   -1.8706    1.2199 H   0  0  0  0  0  0  0  0  0  0  0  0
   -1.5681    3.5767   -1.3991 H   0  0  0  0  0  0  0  0  0  0  0  0
   -1.9823    0.2494    2.3964 H   0  0  0  0  0  0  0  0  0  0  0  0
  1  2  1  0
  1  4  1  0
  1  8  1  0
  1  9  1  0
  2  3  3  0
  3  6  1  0
  4 12  1  0
  5  7  1  0
  5 10  1  0
  6 11  1  0
M  END
