OCC#CO.O_5
     RDKit          3D

 12 10  0  0  0  0  0  0  0  0999 V2000
   -0.1700    1.3262    2.9445 C   0  0  0  0  0  0  0  0  0  0  0  0
   -0.4855    1.2840    1.5616 C   0  0  0  0  0  0  0  0  0  0  0  0
   -0.7417    1.2079    0.3727 C   0  0  0  0  0  0  0  0  0  0  0  0
    0.9260    0.5324    3.3516 O   0  0  0  0  0  0  0  0  0  0  0  0
   -2.1864   -1.6118   -0.7530 O   0  0  0  0  0  0  0  0  0  0  0  0
   -1.0242    1.0891   -0.9045 O   0  0  0  0  0  0  0  0  0  0  0  0
   -1.7947   -0.7170   -0.7979 H   0  0  0  0  0  0  0  0  0  0  0  0
   -1.0414    1.0271    3.5443 H   0  0  0  0  0  0  0  0  0  0  0  0
    0.0713    2.3559    3.2425 H   0  0  0  0  0  0  0  0  0  0  0  0
   -2.7485   -1.6895   -1.5427 H   0  0  0  0  0  0  0  0  0  0  0  0
   -0.5643    1.7685   -1.4435 H   0  0  0  0  0  0  0  0  0  0  0  0
    0.8351   -0.3775    2.9947 H   0  0  0  0  0  0  0  0  0  0  0  0
  1  2  1  0
  1  4  1  0
  1  8  1  0
  1  9  1  0
  2  3  3  0
  3  6  1  0
  4 12  1  0
  5  7  1  0
  5 10  1  0
  6 11  1  0
M  END
