OCC#CO.O_8
     RDKit          3D

 12 10  0  0  0  0  0  0  0  0999 V2000
   -0.2698    1.2825    2.9919 C   0  0  0  0  0  0  0  0  0  0  0  0
   -0.5606    1.2276    1.6041 C   0  0  0  0  0  0  0  0  0  0  0  0
   -0.7887    1.1558    0.4090 C   0  0  0  0  0  0  0  0  0  0  0  0
    1.0359    0.8920    3.3655 O   0  0  0  0  0  0  0  0  0  0  0  0
   -2.1230   -1.6825   -0.8804 O   0  0  0  0  0  0  0  0  0  0  0  0
   -1.0353    1.0505   -0.8767 O   0  0  0  0  0  0  0  0  0  0  0  0
   -1.7540   -0.7768   -0.8728 H   0  0  0  0  0  0  0  0  0  0  0  0
   -0.9802    0.6613    3.5560 H   0  0  0  0  0  0  0  0  0  0  0  0
   -0.3981    2.3098    3.3604 H   0  0  0  0  0  0  0  0  0  0  0  0
   -2.7079   -1.7184   -1.6560 H   0  0  0  0  0  0  0  0  0  0  0  0
   -0.6018    1.7664   -1.3898 H   0  0  0  0  0  0  0  0  0  0  0  0
    1.2594    0.0269    2.9590 H   0  0  0  0  0  0  0  0  0  0  0  0
  1  2  1  0
  1  4  1  0
  1  8  1  0
  1  9  1  0
  2  3  3  0
  3  6  1  0
  4 12  1  0
  5  7  1  0
  5 10  1  0
  6 11  1  0
M  END
