OCC#CO.O_11
     RDKit          3D

 12 10  0  0  0  0  0  0  0  0999 V2000
   -0.3050    1.4687    3.1819 C   0  0  0  0  0  0  0  0  0  0  0  0
   -0.4396    1.4006    1.7708 C   0  0  0  0  0  0  0  0  0  0  0  0
   -0.5364    1.3335    0.5578 C   0  0  0  0  0  0  0  0  0  0  0  0
    0.9635    1.1255    3.7041 O   0  0  0  0  0  0  0  0  0  0  0  0
   -2.0193   -1.1812   -1.5948 O   0  0  0  0  0  0  0  0  0  0  0  0
   -0.6409    1.2551   -0.7481 O   0  0  0  0  0  0  0  0  0  0  0  0
   -1.5991   -1.9884   -1.9308 H   0  0  0  0  0  0  0  0  0  0  0  0
   -1.0521    0.8247    3.6664 H   0  0  0  0  0  0  0  0  0  0  0  0
   -0.5114    2.4912    3.5266 H   0  0  0  0  0  0  0  0  0  0  0  0
   -2.9598   -1.2593   -1.8189 H   0  0  0  0  0  0  0  0  0  0  0  0
   -1.1073    0.4311   -1.0357 H   0  0  0  0  0  0  0  0  0  0  0  0
    1.2832    0.2936    3.2909 H   0  0  0  0  0  0  0  0  0  0  0  0
  1  2  1  0
  1  4  1  0
  1  8  1  0
  1  9  1  0
  2  3  3  0
  3  6  1  0
  4 12  1  0
  5  7  1  0
  5 10  1  0
  6 11  1  0
M  END
