OCC#CO.O_3
     RDKit          3D

 12 10  0  0  0  0  0  0  0  0999 V2000
   -0.1673    1.3709    2.9054 C   0  0  0  0  0  0  0  0  0  0  0  0
   -0.5009    1.3546    1.5263 C   0  0  0  0  0  0  0  0  0  0  0  0
   -0.7795    1.2798    0.3423 C   0  0  0  0  0  0  0  0  0  0  0  0
    0.6806    0.3290    3.3452 O   0  0  0  0  0  0  0  0  0  0  0  0
   -1.9242   -1.6685   -0.6376 O   0  0  0  0  0  0  0  0  0  0  0  0
   -1.0893    1.1468   -0.9272 O   0  0  0  0  0  0  0  0  0  0  0  0
   -2.3844   -1.8877   -1.4649 H   0  0  0  0  0  0  0  0  0  0  0  0
   -1.0788    1.3414    3.5191 H   0  0  0  0  0  0  0  0  0  0  0  0
    0.3452    2.3096    3.1575 H   0  0  0  0  0  0  0  0  0  0  0  0
   -1.6452   -0.7361   -0.7326 H   0  0  0  0  0  0  0  0  0  0  0  0
   -0.7403    1.8887   -1.4672 H   0  0  0  0  0  0  0  0  0  0  0  0
    0.3598   -0.5335    3.0039 H   0  0  0  0  0  0  0  0  0  0  0  0
  1  2  1  0
  1  4  1  0
  1  8  1  0
  1  9  1  0
  2  3  3  0
  3  6  1  0
  4 12  1  0
  5  7  1  0
  5 10  1  0
  6 11  1  0
M  END
