OCC#CO.O_17
     RDKit          3D

 12 10  0  0  0  0  0  0  0  0999 V2000
   -0.0781    0.7639    1.9786 C   0  0  0  0  0  0  0  0  0  0  0  0
   -0.4957    1.7417    1.0391 C   0  0  0  0  0  0  0  0  0  0  0  0
   -0.8817    2.5654    0.2282 C   0  0  0  0  0  0  0  0  0  0  0  0
   -1.0592   -0.1836    2.3543 O   0  0  0  0  0  0  0  0  0  0  0  0
   -0.8441   -2.2549    0.2865 O   0  0  0  0  0  0  0  0  0  0  0  0
   -1.3049    3.4504   -0.6437 O   0  0  0  0  0  0  0  0  0  0  0  0
   -0.9218   -1.5583    0.9688 H   0  0  0  0  0  0  0  0  0  0  0  0
    0.2963    1.2450    2.8933 H   0  0  0  0  0  0  0  0  0  0  0  0
    0.7644    0.1905    1.5673 H   0  0  0  0  0  0  0  0  0  0  0  0
   -1.0316   -3.0911    0.7445 H   0  0  0  0  0  0  0  0  0  0  0  0
   -1.5034    3.0461   -1.5167 H   0  0  0  0  0  0  0  0  0  0  0  0
   -1.8643    0.2800    2.6701 H   0  0  0  0  0  0  0  0  0  0  0  0
  1  2  1  0
  1  4  1  0
  1  8  1  0
  1  9  1  0
  2  3  3  0
  3  6  1  0
  4 12  1  0
  5  7  1  0
  5 10  1  0
  6 11  1  0
M  END
