OCC#CO.O_10
     RDKit          3D

 12 10  0  0  0  0  0  0  0  0999 V2000
   -0.3875    1.1170    3.2773 C   0  0  0  0  0  0  0  0  0  0  0  0
   -0.6895    1.1863    1.8924 C   0  0  0  0  0  0  0  0  0  0  0  0
   -0.9299    1.2623    0.7001 C   0  0  0  0  0  0  0  0  0  0  0  0
    0.4915    2.1075    3.7730 O   0  0  0  0  0  0  0  0  0  0  0  0
   -1.5681   -1.2929   -1.7932 O   0  0  0  0  0  0  0  0  0  0  0  0
   -1.1806    1.3415   -0.5857 O   0  0  0  0  0  0  0  0  0  0  0  0
   -0.9341   -1.7477   -2.3698 H   0  0  0  0  0  0  0  0  0  0  0  0
    0.0410    0.1355    3.5241 H   0  0  0  0  0  0  0  0  0  0  0  0
   -1.3113    1.2054    3.8652 H   0  0  0  0  0  0  0  0  0  0  0  0
   -2.4060   -1.7719   -1.8912 H   0  0  0  0  0  0  0  0  0  0  0  0
   -1.3132    0.4503   -0.9948 H   0  0  0  0  0  0  0  0  0  0  0  0
    1.2635    2.2018    3.1731 H   0  0  0  0  0  0  0  0  0  0  0  0
  1  2  1  0
  1  4  1  0
  1  8  1  0
  1  9  1  0
  2  3  3  0
  3  6  1  0
  4 12  1  0
  5  7  1  0
  5 10  1  0
  6 11  1  0
M  END
