OCC#CO.O_13
     RDKit          3D

 12 10  0  0  0  0  0  0  0  0999 V2000
    0.1650    1.3003    3.0808 C   0  0  0  0  0  0  0  0  0  0  0  0
   -0.4599    1.3205    1.8068 C   0  0  0  0  0  0  0  0  0  0  0  0
   -1.0164    1.3378    0.7226 C   0  0  0  0  0  0  0  0  0  0  0  0
   -0.6852    1.4893    4.1948 O   0  0  0  0  0  0  0  0  0  0  0  0
   -1.3179   -1.1875   -1.8641 O   0  0  0  0  0  0  0  0  0  0  0  0
   -1.6183    1.3505   -0.4435 O   0  0  0  0  0  0  0  0  0  0  0  0
   -2.0499   -1.7882   -2.0749 H   0  0  0  0  0  0  0  0  0  0  0  0
    0.9231    2.0932    3.1363 H   0  0  0  0  0  0  0  0  0  0  0  0
    0.7013    0.3520    3.2259 H   0  0  0  0  0  0  0  0  0  0  0  0
   -0.5652   -1.4905   -2.3959 H   0  0  0  0  0  0  0  0  0  0  0  0
   -1.5159    0.4920   -0.9249 H   0  0  0  0  0  0  0  0  0  0  0  0
   -1.4849    0.9257    4.1064 H   0  0  0  0  0  0  0  0  0  0  0  0
  1  2  1  0
  1  4  1  0
  1  8  1  0
  1  9  1  0
  2  3  3  0
  3  6  1  0
  4 12  1  0
  5  7  1  0
  5 10  1  0
  6 11  1  0
M  END
