OCC#CO.O_7
     RDKit          3D

 12 10  0  0  0  0  0  0  0  0999 V2000
   -0.3589    1.3152    3.0004 C   0  0  0  0  0  0  0  0  0  0  0  0
   -0.6350    1.2508    1.6100 C   0  0  0  0  0  0  0  0  0  0  0  0
   -0.8476    1.1702    0.4127 C   0  0  0  0  0  0  0  0  0  0  0  0
    0.9556    0.9680    3.3856 O   0  0  0  0  0  0  0  0  0  0  0  0
   -1.8625   -1.7809   -0.9075 O   0  0  0  0  0  0  0  0  0  0  0  0
   -1.0759    1.0538   -0.8755 O   0  0  0  0  0  0  0  0  0  0  0  0
   -2.4299   -1.8744   -1.6910 H   0  0  0  0  0  0  0  0  0  0  0  0
   -1.0532    0.6706    3.5580 H   0  0  0  0  0  0  0  0  0  0  0  0
   -0.5244    2.3375    3.3676 H   0  0  0  0  0  0  0  0  0  0  0  0
   -1.5935   -0.8408   -0.8898 H   0  0  0  0  0  0  0  0  0  0  0  0
   -0.7111    1.8131   -1.3794 H   0  0  0  0  0  0  0  0  0  0  0  0
    1.2120    0.1120    2.9792 H   0  0  0  0  0  0  0  0  0  0  0  0
  1  2  1  0
  1  4  1  0
  1  8  1  0
  1  9  1  0
  2  3  3  0
  3  6  1  0
  4 12  1  0
  5  7  1  0
  5 10  1  0
  6 11  1  0
M  END
