OCC#CO.O_14
     RDKit          3D

 12 10  0  0  0  0  0  0  0  0999 V2000
   -0.1315    0.7990    1.9430 C   0  0  0  0  0  0  0  0  0  0  0  0
   -0.5859    1.7809    1.0250 C   0  0  0  0  0  0  0  0  0  0  0  0
   -1.0024    2.6098    0.2345 C   0  0  0  0  0  0  0  0  0  0  0  0
   -1.0708   -0.2018    2.2861 O   0  0  0  0  0  0  0  0  0  0  0  0
   -0.5787   -2.3618    0.3651 O   0  0  0  0  0  0  0  0  0  0  0  0
   -1.4583    3.5015   -0.6137 O   0  0  0  0  0  0  0  0  0  0  0  0
   -0.7805   -3.1818    0.8459 H   0  0  0  0  0  0  0  0  0  0  0  0
    0.2124    1.2732    2.8731 H   0  0  0  0  0  0  0  0  0  0  0  0
    0.7401    0.2759    1.5253 H   0  0  0  0  0  0  0  0  0  0  0  0
   -0.7499   -1.6366    0.9987 H   0  0  0  0  0  0  0  0  0  0  0  0
   -1.6150    3.1204   -1.5055 H   0  0  0  0  0  0  0  0  0  0  0  0
   -1.9037    0.2164    2.5928 H   0  0  0  0  0  0  0  0  0  0  0  0
  1  2  1  0
  1  4  1  0
  1  8  1  0
  1  9  1  0
  2  3  3  0
  3  6  1  0
  4 12  1  0
  5  7  1  0
  5 10  1  0
  6 11  1  0
M  END
