CCC=O.O=O_6
     RDKit          3D

 12 10  0  0  0  0  0  0  0  0999 V2000
    1.0054    0.6857    0.7198 C   0  0  0  0  0  0  0  0  0  0  0  0
    0.2782    1.2438    1.9282 C   0  0  0  0  0  0  0  0  0  0  0  0
   -1.1248    0.7514    1.9844 C   0  0  0  0  0  0  0  0  0  0  0  0
   -1.8978    3.1916   -0.0993 O   0  0  0  0  0  0  0  0  0  0  0  0
   -0.9692    3.1147   -0.7405 O   0  0  0  0  0  0  0  0  0  0  0  0
   -1.4423   -0.3761    1.7500 O   0  0  0  0  0  0  0  0  0  0  0  0
    2.0496    1.0049    0.6787 H   0  0  0  0  0  0  0  0  0  0  0  0
    0.5209    1.0002   -0.2070 H   0  0  0  0  0  0  0  0  0  0  0  0
    0.9852   -0.4064    0.7330 H   0  0  0  0  0  0  0  0  0  0  0  0
   -1.9195    1.4183    2.2958 H   0  0  0  0  0  0  0  0  0  0  0  0
    0.2969    2.3415    1.9167 H   0  0  0  0  0  0  0  0  0  0  0  0
    0.7921    0.9436    2.8504 H   0  0  0  0  0  0  0  0  0  0  0  0
  1  2  1  0
  1  7  1  0
  1  8  1  0
  1  9  1  0
  2  3  1  0
  2 11  1  0
  2 12  1  0
  3  6  2  0
  3 10  1  0
  4  5  2  0
M  END
