CCC=O.O=O
     RDKit          3D

 12 10  0  0  0  0  0  0  0  0999 V2000
    1.0385    1.1250    0.7919 C   0  0  0  0  0  0  0  0  0  0  0  0
    0.3948    0.7602    2.1255 C   0  0  0  0  0  0  0  0  0  0  0  0
   -1.0301    1.2218    2.1810 C   0  0  0  0  0  0  0  0  0  0  0  0
   -1.5546    2.6794   -1.1787 O   0  0  0  0  0  0  0  0  0  0  0  0
   -2.1526    1.6980   -1.1176 O   0  0  0  0  0  0  0  0  0  0  0  0
   -1.2955    2.4134    2.1781 O   0  0  0  0  0  0  0  0  0  0  0  0
    2.0873    0.7609    0.7742 H   0  0  0  0  0  0  0  0  0  0  0  0
    1.0437    2.2272    0.6523 H   0  0  0  0  0  0  0  0  0  0  0  0
    0.4837    0.6508   -0.0458 H   0  0  0  0  0  0  0  0  0  0  0  0
   -1.8334    0.4945    2.2388 H   0  0  0  0  0  0  0  0  0  0  0  0
    0.9668    1.2250    2.9570 H   0  0  0  0  0  0  0  0  0  0  0  0
    0.4261   -0.3431    2.2535 H   0  0  0  0  0  0  0  0  0  0  0  0
  1  2  1  0
  1  7  1  0
  1  8  1  0
  1  9  1  0
  2  3  1  0
  2 11  1  0
  2 12  1  0
  3  6  2  0
  3 10  1  0
  4  5  2  0
M  END
