CCC=O.O=O_7
     RDKit          3D

 12 10  0  0  0  0  0  0  0  0999 V2000
    1.0221    0.8037    0.9261 C   0  0  0  0  0  0  0  0  0  0  0  0
   -0.2329    1.4422    1.4895 C   0  0  0  0  0  0  0  0  0  0  0  0
   -0.6758    0.7530    2.7307 C   0  0  0  0  0  0  0  0  0  0  0  0
   -1.6422    2.9970   -0.9664 O   0  0  0  0  0  0  0  0  0  0  0  0
   -1.0860    2.2367   -1.5926 O   0  0  0  0  0  0  0  0  0  0  0  0
   -0.7449   -0.4347    2.8370 O   0  0  0  0  0  0  0  0  0  0  0  0
    1.3408    1.2694   -0.0097 H   0  0  0  0  0  0  0  0  0  0  0  0
    0.8571   -0.2593    0.7358 H   0  0  0  0  0  0  0  0  0  0  0  0
    1.8491    0.8748    1.6358 H   0  0  0  0  0  0  0  0  0  0  0  0
   -0.9957    1.3320    3.5885 H   0  0  0  0  0  0  0  0  0  0  0  0
   -1.0460    1.3872    0.7544 H   0  0  0  0  0  0  0  0  0  0  0  0
   -0.0711    2.5111    1.6812 H   0  0  0  0  0  0  0  0  0  0  0  0
  1  2  1  0
  1  7  1  0
  1  8  1  0
  1  9  1  0
  2  3  1  0
  2 11  1  0
  2 12  1  0
  3  6  2  0
  3 10  1  0
  4  5  2  0
M  END
