CCC=O.O=O_2
     RDKit          3D

 12 10  0  0  0  0  0  0  0  0999 V2000
    0.8490    0.6346    0.6496 C   0  0  0  0  0  0  0  0  0  0  0  0
    0.2363    1.1937    1.9194 C   0  0  0  0  0  0  0  0  0  0  0  0
   -1.1364    0.6603    2.1326 C   0  0  0  0  0  0  0  0  0  0  0  0
   -1.5348    3.1890   -0.4353 O   0  0  0  0  0  0  0  0  0  0  0  0
   -0.4757    3.5864   -0.4424 O   0  0  0  0  0  0  0  0  0  0  0  0
   -1.9446    0.5403    1.2611 O   0  0  0  0  0  0  0  0  0  0  0  0
    1.8421    1.0452    0.4514 H   0  0  0  0  0  0  0  0  0  0  0  0
    0.2133    0.8569   -0.2106 H   0  0  0  0  0  0  0  0  0  0  0  0
    0.9388   -0.4523    0.7049 H   0  0  0  0  0  0  0  0  0  0  0  0
   -1.4666    0.4016    3.1312 H   0  0  0  0  0  0  0  0  0  0  0  0
    0.1814    2.2884    1.8622 H   0  0  0  0  0  0  0  0  0  0  0  0
    0.8719    0.9691    2.7861 H   0  0  0  0  0  0  0  0  0  0  0  0
  1  2  1  0
  1  7  1  0
  1  8  1  0
  1  9  1  0
  2  3  1  0
  2 11  1  0
  2 12  1  0
  3  6  2  0
  3 10  1  0
  4  5  2  0
M  END
