CCC=O.O=O_17
     RDKit          3D

 12 10  0  0  0  0  0  0  0  0999 V2000
    0.8973    1.6876    0.9234 C   0  0  0  0  0  0  0  0  0  0  0  0
   -0.1039    0.7814    1.6139 C   0  0  0  0  0  0  0  0  0  0  0  0
   -0.7270    1.4609    2.7816 C   0  0  0  0  0  0  0  0  0  0  0  0
   -1.3525    1.2668   -1.6319 O   0  0  0  0  0  0  0  0  0  0  0  0
   -1.2247    0.1454   -1.5542 O   0  0  0  0  0  0  0  0  0  0  0  0
   -0.1161    2.1199    3.5688 O   0  0  0  0  0  0  0  0  0  0  0  0
    1.3952    1.1944    0.0850 H   0  0  0  0  0  0  0  0  0  0  0  0
    1.6649    2.0154    1.6281 H   0  0  0  0  0  0  0  0  0  0  0  0
    0.4106    2.5881    0.5428 H   0  0  0  0  0  0  0  0  0  0  0  0
   -1.7841    1.3338    2.9806 H   0  0  0  0  0  0  0  0  0  0  0  0
    0.3923   -0.1326    1.9646 H   0  0  0  0  0  0  0  0  0  0  0  0
   -0.8773    0.4521    0.9076 H   0  0  0  0  0  0  0  0  0  0  0  0
  1  2  1  0
  1  7  1  0
  1  8  1  0
  1  9  1  0
  2  3  1  0
  2 11  1  0
  2 12  1  0
  3  6  2  0
  3 10  1  0
  4  5  2  0
M  END
