CCC=O.O=O_19
     RDKit          3D

 12 10  0  0  0  0  0  0  0  0999 V2000
    0.8543    0.8115    0.7677 C   0  0  0  0  0  0  0  0  0  0  0  0
   -0.1373    1.4768    1.7028 C   0  0  0  0  0  0  0  0  0  0  0  0
   -0.7161    0.4948    2.6588 C   0  0  0  0  0  0  0  0  0  0  0  0
   -1.0094    2.4739   -1.5578 O   0  0  0  0  0  0  0  0  0  0  0  0
   -1.3327    3.3302   -0.8931 O   0  0  0  0  0  0  0  0  0  0  0  0
   -0.0764   -0.3495    3.2111 O   0  0  0  0  0  0  0  0  0  0  0  0
    1.3209    1.5229    0.0819 H   0  0  0  0  0  0  0  0  0  0  0  0
    0.3680    0.0377    0.1699 H   0  0  0  0  0  0  0  0  0  0  0  0
    1.6465    0.3209    1.3378 H   0  0  0  0  0  0  0  0  0  0  0  0
   -1.7644    0.5531    2.9253 H   0  0  0  0  0  0  0  0  0  0  0  0
   -0.9360    1.9679    1.1317 H   0  0  0  0  0  0  0  0  0  0  0  0
    0.3573    2.2727    2.2742 H   0  0  0  0  0  0  0  0  0  0  0  0
  1  2  1  0
  1  7  1  0
  1  8  1  0
  1  9  1  0
  2  3  1  0
  2 11  1  0
  2 12  1  0
  3  6  2  0
  3 10  1  0
  4  5  2  0
M  END
