CCC=O.O=O_3
     RDKit          3D

 12 10  0  0  0  0  0  0  0  0999 V2000
    1.0943    1.3336    0.8911 C   0  0  0  0  0  0  0  0  0  0  0  0
    0.0310    0.5592    1.6459 C   0  0  0  0  0  0  0  0  0  0  0  0
   -0.7740    1.4601    2.5144 C   0  0  0  0  0  0  0  0  0  0  0  0
   -1.5855    1.2093   -1.2912 O   0  0  0  0  0  0  0  0  0  0  0  0
   -1.8924    2.2265   -0.9027 O   0  0  0  0  0  0  0  0  0  0  0  0
   -1.1557    2.5407    2.1773 O   0  0  0  0  0  0  0  0  0  0  0  0
    1.7919    1.8129    1.5811 H   0  0  0  0  0  0  0  0  0  0  0  0
    0.6378    2.1296    0.2982 H   0  0  0  0  0  0  0  0  0  0  0  0
    1.6717    0.6973    0.2159 H   0  0  0  0  0  0  0  0  0  0  0  0
   -1.0882    1.1256    3.4956 H   0  0  0  0  0  0  0  0  0  0  0  0
    0.4876   -0.2401    2.2445 H   0  0  0  0  0  0  0  0  0  0  0  0
   -0.6439    0.0583    0.9400 H   0  0  0  0  0  0  0  0  0  0  0  0
  1  2  1  0
  1  7  1  0
  1  8  1  0
  1  9  1  0
  2  3  1  0
  2 11  1  0
  2 12  1  0
  3  6  2  0
  3 10  1  0
  4  5  2  0
M  END
