CCC=O.O=O_8
     RDKit          3D

 12 10  0  0  0  0  0  0  0  0999 V2000
    1.0309    0.8580    0.8587 C   0  0  0  0  0  0  0  0  0  0  0  0
   -0.2270    1.4046    1.5060 C   0  0  0  0  0  0  0  0  0  0  0  0
   -0.6136    0.5985    2.6945 C   0  0  0  0  0  0  0  0  0  0  0  0
   -1.9656    2.9003   -0.8290 O   0  0  0  0  0  0  0  0  0  0  0  0
   -1.0068    2.6949   -1.3933 O   0  0  0  0  0  0  0  0  0  0  0  0
   -0.6347   -0.5958    2.7033 O   0  0  0  0  0  0  0  0  0  0  0  0
    1.8745    0.8955    1.5512 H   0  0  0  0  0  0  0  0  0  0  0  0
    1.3093    1.4119   -0.0412 H   0  0  0  0  0  0  0  0  0  0  0  0
    0.8933   -0.1899    0.5821 H   0  0  0  0  0  0  0  0  0  0  0  0
   -0.9345    1.0918    3.6040 H   0  0  0  0  0  0  0  0  0  0  0  0
   -1.0582    1.3851    0.7895 H   0  0  0  0  0  0  0  0  0  0  0  0
   -0.0929    2.4582    1.7844 H   0  0  0  0  0  0  0  0  0  0  0  0
  1  2  1  0
  1  7  1  0
  1  8  1  0
  1  9  1  0
  2  3  1  0
  2 11  1  0
  2 12  1  0
  3  6  2  0
  3 10  1  0
  4  5  2  0
M  END
