CCC=O.O=O_4
     RDKit          3D

 12 10  0  0  0  0  0  0  0  0999 V2000
    1.1370    1.3571    0.8764 C   0  0  0  0  0  0  0  0  0  0  0  0
    0.2207    0.6812    1.8785 C   0  0  0  0  0  0  0  0  0  0  0  0
   -0.9630    1.5303    2.1814 C   0  0  0  0  0  0  0  0  0  0  0  0
   -1.9531    1.9289   -0.9421 O   0  0  0  0  0  0  0  0  0  0  0  0
   -1.7915    0.8111   -1.0065 O   0  0  0  0  0  0  0  0  0  0  0  0
   -0.9094    2.7137    2.3361 O   0  0  0  0  0  0  0  0  0  0  0  0
    2.0336    0.7679    0.6691 H   0  0  0  0  0  0  0  0  0  0  0  0
    1.4525    2.3351    1.2471 H   0  0  0  0  0  0  0  0  0  0  0  0
    0.6211    1.5289   -0.0706 H   0  0  0  0  0  0  0  0  0  0  0  0
   -1.9348    1.0725    2.3208 H   0  0  0  0  0  0  0  0  0  0  0  0
    0.7614    0.4871    2.8137 H   0  0  0  0  0  0  0  0  0  0  0  0
   -0.0999   -0.3008    1.5064 H   0  0  0  0  0  0  0  0  0  0  0  0
  1  2  1  0
  1  7  1  0
  1  8  1  0
  1  9  1  0
  2  3  1  0
  2 11  1  0
  2 12  1  0
  3  6  2  0
  3 10  1  0
  4  5  2  0
M  END
