CCC=O.O=O_14
     RDKit          3D

 12 10  0  0  0  0  0  0  0  0999 V2000
    0.8491    1.7784    0.9401 C   0  0  0  0  0  0  0  0  0  0  0  0
   -0.1456    0.8203    1.5669 C   0  0  0  0  0  0  0  0  0  0  0  0
   -0.6894    1.3670    2.8392 C   0  0  0  0  0  0  0  0  0  0  0  0
   -0.8812    0.1422   -1.6767 O   0  0  0  0  0  0  0  0  0  0  0  0
   -1.4977    1.0881   -1.6074 O   0  0  0  0  0  0  0  0  0  0  0  0
   -0.0212    1.9121    3.6659 O   0  0  0  0  0  0  0  0  0  0  0  0
    1.2905    1.3788    0.0239 H   0  0  0  0  0  0  0  0  0  0  0  0
    1.6596    1.9983    1.6387 H   0  0  0  0  0  0  0  0  0  0  0  0
    0.3733    2.7307    0.6964 H   0  0  0  0  0  0  0  0  0  0  0  0
   -1.7381    1.2393    3.0783 H   0  0  0  0  0  0  0  0  0  0  0  0
    0.3379   -0.1422    1.7776 H   0  0  0  0  0  0  0  0  0  0  0  0
   -0.9624    0.6001    0.8672 H   0  0  0  0  0  0  0  0  0  0  0  0
  1  2  1  0
  1  7  1  0
  1  8  1  0
  1  9  1  0
  2  3  1  0
  2 11  1  0
  2 12  1  0
  3  6  2  0
  3 10  1  0
  4  5  2  0
M  END
