CCC=O.O=O_16
     RDKit          3D

 12 10  0  0  0  0  0  0  0  0999 V2000
    0.8885    1.6956    0.9400 C   0  0  0  0  0  0  0  0  0  0  0  0
   -0.2258    0.8615    1.5426 C   0  0  0  0  0  0  0  0  0  0  0  0
   -0.6277    1.3851    2.8759 C   0  0  0  0  0  0  0  0  0  0  0  0
   -1.5692    1.1602   -1.6007 O   0  0  0  0  0  0  0  0  0  0  0  0
   -0.9164    0.2437   -1.7169 O   0  0  0  0  0  0  0  0  0  0  0  0
    0.1493    1.7514    3.7060 O   0  0  0  0  0  0  0  0  0  0  0  0
    1.2263    1.3045   -0.0229 H   0  0  0  0  0  0  0  0  0  0  0  0
    1.7483    1.7273    1.6131 H   0  0  0  0  0  0  0  0  0  0  0  0
    0.5654    2.7278    0.7890 H   0  0  0  0  0  0  0  0  0  0  0  0
   -1.6738    1.4048    3.1563 H   0  0  0  0  0  0  0  0  0  0  0  0
    0.1018   -0.1795    1.6591 H   0  0  0  0  0  0  0  0  0  0  0  0
   -1.0920    0.8308    0.8687 H   0  0  0  0  0  0  0  0  0  0  0  0
  1  2  1  0
  1  7  1  0
  1  8  1  0
  1  9  1  0
  2  3  1  0
  2 11  1  0
  2 12  1  0
  3  6  2  0
  3 10  1  0
  4  5  2  0
M  END
