CCC=O.O=O_5
     RDKit          3D

 12 10  0  0  0  0  0  0  0  0999 V2000
    1.1919    1.4204    0.9274 C   0  0  0  0  0  0  0  0  0  0  0  0
    0.1562    0.7043    1.7728 C   0  0  0  0  0  0  0  0  0  0  0  0
   -0.9207    1.6359    2.2045 C   0  0  0  0  0  0  0  0  0  0  0  0
   -2.3890    0.8554   -0.6624 O   0  0  0  0  0  0  0  0  0  0  0  0
   -1.5191    1.2611   -1.2610 O   0  0  0  0  0  0  0  0  0  0  0  0
   -0.7203    2.7487    2.5901 O   0  0  0  0  0  0  0  0  0  0  0  0
    2.0130    0.7633    0.6305 H   0  0  0  0  0  0  0  0  0  0  0  0
    1.6152    2.2647    1.4764 H   0  0  0  0  0  0  0  0  0  0  0  0
    0.7413    1.8270    0.0194 H   0  0  0  0  0  0  0  0  0  0  0  0
   -1.9504    1.3002    2.2234 H   0  0  0  0  0  0  0  0  0  0  0  0
    0.6281    0.2763    2.6666 H   0  0  0  0  0  0  0  0  0  0  0  0
   -0.2714   -0.1442    1.2224 H   0  0  0  0  0  0  0  0  0  0  0  0
  1  2  1  0
  1  7  1  0
  1  8  1  0
  1  9  1  0
  2  3  1  0
  2 11  1  0
  2 12  1  0
  3  6  2  0
  3 10  1  0
  4  5  2  0
M  END
