CCC=O.O=O_1
     RDKit          3D

 12 10  0  0  0  0  0  0  0  0999 V2000
    1.4328    0.4826    1.2733 C   0  0  0  0  0  0  0  0  0  0  0  0
    0.3045    1.4596    1.5427 C   0  0  0  0  0  0  0  0  0  0  0  0
   -1.0208    0.7948    1.4204 C   0  0  0  0  0  0  0  0  0  0  0  0
   -2.9210    3.1583    0.2186 O   0  0  0  0  0  0  0  0  0  0  0  0
   -2.0284    3.1461   -0.4761 O   0  0  0  0  0  0  0  0  0  0  0  0
   -1.2664   -0.2865    1.8639 O   0  0  0  0  0  0  0  0  0  0  0  0
    2.4174    0.9403    1.3959 H   0  0  0  0  0  0  0  0  0  0  0  0
    1.3706    0.0848    0.2582 H   0  0  0  0  0  0  0  0  0  0  0  0
    1.3691   -0.3706    1.9526 H   0  0  0  0  0  0  0  0  0  0  0  0
   -1.8445    1.3127    0.9453 H   0  0  0  0  0  0  0  0  0  0  0  0
    0.3654    2.3175    0.8602 H   0  0  0  0  0  0  0  0  0  0  0  0
    0.3961    1.8735    2.5551 H   0  0  0  0  0  0  0  0  0  0  0  0
  1  2  1  0
  1  7  1  0
  1  8  1  0
  1  9  1  0
  2  3  1  0
  2 11  1  0
  2 12  1  0
  3  6  2  0
  3 10  1  0
  4  5  2  0
M  END
