CCC=O.O=O_9
     RDKit          3D

 12 10  0  0  0  0  0  0  0  0999 V2000
    1.0752    0.9594    0.9612 C   0  0  0  0  0  0  0  0  0  0  0  0
   -0.2756    1.4114    1.4820 C   0  0  0  0  0  0  0  0  0  0  0  0
   -0.6497    0.6727    2.7174 C   0  0  0  0  0  0  0  0  0  0  0  0
   -0.9242    2.5983   -1.4709 O   0  0  0  0  0  0  0  0  0  0  0  0
   -1.9856    2.3536   -1.1661 O   0  0  0  0  0  0  0  0  0  0  0  0
   -0.5438   -0.5111    2.8358 O   0  0  0  0  0  0  0  0  0  0  0  0
    1.3500    1.4602    0.0297 H   0  0  0  0  0  0  0  0  0  0  0  0
    1.0727   -0.1176    0.7782 H   0  0  0  0  0  0  0  0  0  0  0  0
    1.8617    1.1553    1.6931 H   0  0  0  0  0  0  0  0  0  0  0  0
   -1.0793    1.2037    3.5582 H   0  0  0  0  0  0  0  0  0  0  0  0
   -1.0498    1.2337    0.7248 H   0  0  0  0  0  0  0  0  0  0  0  0
   -0.2770    2.4936    1.6670 H   0  0  0  0  0  0  0  0  0  0  0  0
  1  2  1  0
  1  7  1  0
  1  8  1  0
  1  9  1  0
  2  3  1  0
  2 11  1  0
  2 12  1  0
  3  6  2  0
  3 10  1  0
  4  5  2  0
M  END
