CCC=O.O=O_10
     RDKit          3D

 12 10  0  0  0  0  0  0  0  0999 V2000
    1.0933    1.3985    1.0289 C   0  0  0  0  0  0  0  0  0  0  0  0
   -0.3163    0.9946    1.4163 C   0  0  0  0  0  0  0  0  0  0  0  0
   -0.5905    1.3039    2.8449 C   0  0  0  0  0  0  0  0  0  0  0  0
   -2.0156    1.3615   -1.3742 O   0  0  0  0  0  0  0  0  0  0  0  0
   -1.0416    0.9390   -1.7649 O   0  0  0  0  0  0  0  0  0  0  0  0
   -0.3089    2.3438    3.3608 O   0  0  0  0  0  0  0  0  0  0  0  0
    1.3013    1.2181   -0.0286 H   0  0  0  0  0  0  0  0  0  0  0  0
    1.8324    0.8488    1.6155 H   0  0  0  0  0  0  0  0  0  0  0  0
    1.2546    2.4602    1.2290 H   0  0  0  0  0  0  0  0  0  0  0  0
   -1.1059    0.5825    3.4672 H   0  0  0  0  0  0  0  0  0  0  0  0
   -0.4824   -0.0721    1.2162 H   0  0  0  0  0  0  0  0  0  0  0  0
   -1.0458    1.5344    0.7991 H   0  0  0  0  0  0  0  0  0  0  0  0
  1  2  1  0
  1  7  1  0
  1  8  1  0
  1  9  1  0
  2  3  1  0
  2 11  1  0
  2 12  1  0
  3  6  2  0
  3 10  1  0
  4  5  2  0
M  END
