CCC=O.O=O_15
     RDKit          3D

 12 10  0  0  0  0  0  0  0  0999 V2000
    0.7958    0.7495    0.7256 C   0  0  0  0  0  0  0  0  0  0  0  0
   -0.0713    1.4733    1.7379 C   0  0  0  0  0  0  0  0  0  0  0  0
   -0.7850    0.5105    2.6193 C   0  0  0  0  0  0  0  0  0  0  0  0
   -1.2531    2.5482   -1.3711 O   0  0  0  0  0  0  0  0  0  0  0  0
   -0.8389    3.4852   -0.8913 O   0  0  0  0  0  0  0  0  0  0  0  0
   -0.2742   -0.4610    3.0907 O   0  0  0  0  0  0  0  0  0  0  0  0
    1.3598    1.4392    0.0928 H   0  0  0  0  0  0  0  0  0  0  0  0
    0.1897    0.1155    0.0750 H   0  0  0  0  0  0  0  0  0  0  0  0
    1.5086    0.0948    1.2323 H   0  0  0  0  0  0  0  0  0  0  0  0
   -1.8130    0.6980    2.9046 H   0  0  0  0  0  0  0  0  0  0  0  0
   -0.7901    2.1300    1.2305 H   0  0  0  0  0  0  0  0  0  0  0  0
    0.5464    2.1299    2.3639 H   0  0  0  0  0  0  0  0  0  0  0  0
  1  2  1  0
  1  7  1  0
  1  8  1  0
  1  9  1  0
  2  3  1  0
  2 11  1  0
  2 12  1  0
  3  6  2  0
  3 10  1  0
  4  5  2  0
M  END
