CC(=O)C.O=O
     RDKit          3D

 12 10  0  0  0  0  0  0  0  0999 V2000
   -0.3974    0.7095    2.5846 C   0  0  0  0  0  0  0  0  0  0  0  0
    1.0011    0.2798    0.4132 C   0  0  0  0  0  0  0  0  0  0  0  0
    0.0010   -0.1703    1.4367 C   0  0  0  0  0  0  0  0  0  0  0  0
   -1.9789    2.1997   -0.3073 O   0  0  0  0  0  0  0  0  0  0  0  0
   -1.2382    3.0227    0.0069 O   0  0  0  0  0  0  0  0  0  0  0  0
   -0.5012   -1.2785    1.3326 O   0  0  0  0  0  0  0  0  0  0  0  0
    0.1337    1.6837    2.5531 H   0  0  0  0  0  0  0  0  0  0  0  0
   -1.4902    0.9004    2.5435 H   0  0  0  0  0  0  0  0  0  0  0  0
   -0.1535    0.2033    3.5420 H   0  0  0  0  0  0  0  0  0  0  0  0
    0.5288    0.2801   -0.5915 H   0  0  0  0  0  0  0  0  0  0  0  0
    1.8653   -0.4170    0.4074 H   0  0  0  0  0  0  0  0  0  0  0  0
    1.3720    1.3032    0.6303 H   0  0  0  0  0  0  0  0  0  0  0  0
  1  3  1  0
  1  7  1  0
  1  8  1  0
  1  9  1  0
  2  3  1  0
  2 10  1  0
  2 11  1  0
  2 12  1  0
  3  6  2  0
  4  5  2  0
M  END
