CC(=O)C.O=O_9
     RDKit          3D

 12 10  0  0  0  0  0  0  0  0999 V2000
   -0.6699    0.8693    1.2693 C   0  0  0  0  0  0  0  0  0  0  0  0
    1.4749   -0.4169    0.6739 C   0  0  0  0  0  0  0  0  0  0  0  0
    0.5235    0.0888    1.7026 C   0  0  0  0  0  0  0  0  0  0  0  0
   -2.5710    3.4038    1.0813 O   0  0  0  0  0  0  0  0  0  0  0  0
   -2.5615    3.3506    2.2112 O   0  0  0  0  0  0  0  0  0  0  0  0
    0.7100   -0.1397    2.8684 O   0  0  0  0  0  0  0  0  0  0  0  0
   -0.4561    1.4706    0.3845 H   0  0  0  0  0  0  0  0  0  0  0  0
   -1.5049    0.2045    1.0453 H   0  0  0  0  0  0  0  0  0  0  0  0
   -0.9804    1.5406    2.0711 H   0  0  0  0  0  0  0  0  0  0  0  0
    2.4340    0.0946    0.7617 H   0  0  0  0  0  0  0  0  0  0  0  0
    1.0936   -0.2663   -0.3370 H   0  0  0  0  0  0  0  0  0  0  0  0
    1.6502   -1.4833    0.8191 H   0  0  0  0  0  0  0  0  0  0  0  0
  1  3  1  0
  1  7  1  0
  1  8  1  0
  1  9  1  0
  2  3  1  0
  2 10  1  0
  2 11  1  0
  2 12  1  0
  3  6  2  0
  4  5  2  0
M  END
