CC(=O)C.O=O_15
     RDKit          3D

 12 10  0  0  0  0  0  0  0  0999 V2000
   -0.0810    0.2351    3.0620 C   0  0  0  0  0  0  0  0  0  0  0  0
    0.3565    0.7312    0.5761 C   0  0  0  0  0  0  0  0  0  0  0  0
   -0.0978   -0.2081    1.6386 C   0  0  0  0  0  0  0  0  0  0  0  0
   -1.1178    2.9815   -1.2132 O   0  0  0  0  0  0  0  0  0  0  0  0
   -0.6428    2.3740   -2.0409 O   0  0  0  0  0  0  0  0  0  0  0  0
   -0.4510   -1.3207    1.3491 O   0  0  0  0  0  0  0  0  0  0  0  0
   -0.8531   -0.2928    3.6227 H   0  0  0  0  0  0  0  0  0  0  0  0
    0.8817    0.0103    3.5228 H   0  0  0  0  0  0  0  0  0  0  0  0
   -0.2675    1.3062    3.1513 H   0  0  0  0  0  0  0  0  0  0  0  0
   -0.4180    0.8335   -0.1849 H   0  0  0  0  0  0  0  0  0  0  0  0
    1.2536    0.3457    0.0904 H   0  0  0  0  0  0  0  0  0  0  0  0
    0.5797    1.7208    0.9774 H   0  0  0  0  0  0  0  0  0  0  0  0
  1  3  1  0
  1  7  1  0
  1  8  1  0
  1  9  1  0
  2  3  1  0
  2 10  1  0
  2 11  1  0
  2 12  1  0
  3  6  2  0
  4  5  2  0
M  END
