CC(=O)C.O=O_11
     RDKit          3D

 12 10  0  0  0  0  0  0  0  0999 V2000
    0.1847    0.0718    3.0961 C   0  0  0  0  0  0  0  0  0  0  0  0
    0.0633    0.9121    0.6711 C   0  0  0  0  0  0  0  0  0  0  0  0
   -0.2614   -0.1270    1.6891 C   0  0  0  0  0  0  0  0  0  0  0  0
   -0.3110    2.9577   -1.7281 O   0  0  0  0  0  0  0  0  0  0  0  0
   -0.9854    2.1507   -2.1448 O   0  0  0  0  0  0  0  0  0  0  0  0
   -0.8650   -1.1190    1.3764 O   0  0  0  0  0  0  0  0  0  0  0  0
    0.7971    0.9684    3.2019 H   0  0  0  0  0  0  0  0  0  0  0  0
   -0.6782    0.1626    3.7565 H   0  0  0  0  0  0  0  0  0  0  0  0
    0.7709   -0.7857    3.4278 H   0  0  0  0  0  0  0  0  0  0  0  0
    1.0846    0.7924    0.3076 H   0  0  0  0  0  0  0  0  0  0  0  0
   -0.0461    1.9182    1.0786 H   0  0  0  0  0  0  0  0  0  0  0  0
   -0.6111    0.8143   -0.1807 H   0  0  0  0  0  0  0  0  0  0  0  0
  1  3  1  0
  1  7  1  0
  1  8  1  0
  1  9  1  0
  2  3  1  0
  2 10  1  0
  2 11  1  0
  2 12  1  0
  3  6  2  0
  4  5  2  0
M  END
