CC(=O)C.O=O_8
     RDKit          3D

 12 10  0  0  0  0  0  0  0  0999 V2000
   -0.4477    1.0997    1.4005 C   0  0  0  0  0  0  0  0  0  0  0  0
    1.3948   -0.6671    1.1353 C   0  0  0  0  0  0  0  0  0  0  0  0
    0.4584    0.3116    0.5173 C   0  0  0  0  0  0  0  0  0  0  0  0
   -3.1351    2.7446    1.8109 O   0  0  0  0  0  0  0  0  0  0  0  0
   -2.4281    3.6109    1.6399 O   0  0  0  0  0  0  0  0  0  0  0  0
    0.4345    0.4630   -0.6756 O   0  0  0  0  0  0  0  0  0  0  0  0
   -1.0898    1.7367    0.7906 H   0  0  0  0  0  0  0  0  0  0  0  0
   -1.0858    0.4445    1.9952 H   0  0  0  0  0  0  0  0  0  0  0  0
    0.1214    1.7395    2.0762 H   0  0  0  0  0  0  0  0  0  0  0  0
    1.1773   -1.6741    0.7777 H   0  0  0  0  0  0  0  0  0  0  0  0
    1.3198   -0.6635    2.2237 H   0  0  0  0  0  0  0  0  0  0  0  0
    2.4227   -0.4291    0.8599 H   0  0  0  0  0  0  0  0  0  0  0  0
  1  3  1  0
  1  7  1  0
  1  8  1  0
  1  9  1  0
  2  3  1  0
  2 10  1  0
  2 11  1  0
  2 12  1  0
  3  6  2  0
  4  5  2  0
M  END
