CC(=O)C.O=O_19
     RDKit          3D

 12 10  0  0  0  0  0  0  0  0999 V2000
   -0.1124   -0.0022    2.9557 C   0  0  0  0  0  0  0  0  0  0  0  0
    0.5981    0.4905    0.5341 C   0  0  0  0  0  0  0  0  0  0  0  0
   -0.0888    0.9199    1.7854 C   0  0  0  0  0  0  0  0  0  0  0  0
   -1.5025    2.7649   -1.0909 O   0  0  0  0  0  0  0  0  0  0  0  0
   -1.0793    2.0868   -1.8914 O   0  0  0  0  0  0  0  0  0  0  0  0
   -0.6216    1.9962    1.8493 O   0  0  0  0  0  0  0  0  0  0  0  0
    0.5910    0.3334    3.7185 H   0  0  0  0  0  0  0  0  0  0  0  0
   -1.1080   -0.0134    3.4004 H   0  0  0  0  0  0  0  0  0  0  0  0
    0.1464   -1.0227    2.6701 H   0  0  0  0  0  0  0  0  0  0  0  0
    1.3671   -0.2570    0.7336 H   0  0  0  0  0  0  0  0  0  0  0  0
    1.0723    1.3494    0.0580 H   0  0  0  0  0  0  0  0  0  0  0  0
   -0.1198    0.0708   -0.1714 H   0  0  0  0  0  0  0  0  0  0  0  0
  1  3  1  0
  1  7  1  0
  1  8  1  0
  1  9  1  0
  2  3  1  0
  2 10  1  0
  2 11  1  0
  2 12  1  0
  3  6  2  0
  4  5  2  0
M  END
