CC(=O)C.O=O_17
     RDKit          3D

 12 10  0  0  0  0  0  0  0  0999 V2000
    0.0552    0.3299    3.0343 C   0  0  0  0  0  0  0  0  0  0  0  0
    0.7260    0.8512    0.6077 C   0  0  0  0  0  0  0  0  0  0  0  0
   -0.2451    0.2670    1.5762 C   0  0  0  0  0  0  0  0  0  0  0  0
   -1.3049    2.0916   -1.7592 O   0  0  0  0  0  0  0  0  0  0  0  0
   -2.1143    1.3954   -1.3853 O   0  0  0  0  0  0  0  0  0  0  0  0
   -1.2622   -0.2437    1.1871 O   0  0  0  0  0  0  0  0  0  0  0  0
    0.3382   -0.6553    3.4065 H   0  0  0  0  0  0  0  0  0  0  0  0
    0.8657    1.0277    3.2492 H   0  0  0  0  0  0  0  0  0  0  0  0
   -0.8297    0.6534    3.5832 H   0  0  0  0  0  0  0  0  0  0  0  0
    0.4619    1.8836    0.3760 H   0  0  0  0  0  0  0  0  0  0  0  0
    0.7076    0.2835   -0.3232 H   0  0  0  0  0  0  0  0  0  0  0  0
    1.7441    0.8322    0.9991 H   0  0  0  0  0  0  0  0  0  0  0  0
  1  3  1  0
  1  7  1  0
  1  8  1  0
  1  9  1  0
  2  3  1  0
  2 10  1  0
  2 11  1  0
  2 12  1  0
  3  6  2  0
  4  5  2  0
M  END
