CC(=O)C.O=O_16
     RDKit          3D

 12 10  0  0  0  0  0  0  0  0999 V2000
   -0.1738    0.1751    3.0348 C   0  0  0  0  0  0  0  0  0  0  0  0
   -0.2123    0.4988    0.4827 C   0  0  0  0  0  0  0  0  0  0  0  0
    0.4815    0.0091    1.7060 C   0  0  0  0  0  0  0  0  0  0  0  0
    0.0351    2.7189   -1.8820 O   0  0  0  0  0  0  0  0  0  0  0  0
   -0.3795    3.3429   -1.0345 O   0  0  0  0  0  0  0  0  0  0  0  0
    1.5495   -0.5364    1.6159 O   0  0  0  0  0  0  0  0  0  0  0  0
   -0.7812   -0.6983    3.2747 H   0  0  0  0  0  0  0  0  0  0  0  0
    0.5849    0.2796    3.8111 H   0  0  0  0  0  0  0  0  0  0  0  0
   -0.8117    1.0597    3.0607 H   0  0  0  0  0  0  0  0  0  0  0  0
   -0.4441   -0.3363   -0.1790 H   0  0  0  0  0  0  0  0  0  0  0  0
    0.4358    1.1866   -0.0616 H   0  0  0  0  0  0  0  0  0  0  0  0
   -1.1418    1.0168    0.7227 H   0  0  0  0  0  0  0  0  0  0  0  0
  1  3  1  0
  1  7  1  0
  1  8  1  0
  1  9  1  0
  2  3  1  0
  2 10  1  0
  2 11  1  0
  2 12  1  0
  3  6  2  0
  4  5  2  0
M  END
