CC(=O)C.O=O_7
     RDKit          3D

 12 10  0  0  0  0  0  0  0  0999 V2000
   -0.0760    0.1659    3.1169 C   0  0  0  0  0  0  0  0  0  0  0  0
   -0.3175    0.7043    0.6144 C   0  0  0  0  0  0  0  0  0  0  0  0
    0.4305    0.0441    1.7211 C   0  0  0  0  0  0  0  0  0  0  0  0
   -0.0014    3.0381   -1.5590 O   0  0  0  0  0  0  0  0  0  0  0  0
   -0.2111    2.1588   -2.2390 O   0  0  0  0  0  0  0  0  0  0  0  0
    1.4281   -0.5856    1.4882 O   0  0  0  0  0  0  0  0  0  0  0  0
    0.5658    0.8297    3.6970 H   0  0  0  0  0  0  0  0  0  0  0  0
   -1.0939    0.5574    3.1435 H   0  0  0  0  0  0  0  0  0  0  0  0
   -0.0720   -0.8110    3.6014 H   0  0  0  0  0  0  0  0  0  0  0  0
   -1.0434    0.0176    0.1777 H   0  0  0  0  0  0  0  0  0  0  0  0
    0.3778    1.0027   -0.1713 H   0  0  0  0  0  0  0  0  0  0  0  0
   -0.8444    1.5946    0.9605 H   0  0  0  0  0  0  0  0  0  0  0  0
  1  3  1  0
  1  7  1  0
  1  8  1  0
  1  9  1  0
  2  3  1  0
  2 10  1  0
  2 11  1  0
  2 12  1  0
  3  6  2  0
  4  5  2  0
M  END
