CC(=O)C.O=O_12
     RDKit          3D

 12 10  0  0  0  0  0  0  0  0999 V2000
    0.1576   -0.2880    2.9201 C   0  0  0  0  0  0  0  0  0  0  0  0
    0.1034    1.0998    0.7567 C   0  0  0  0  0  0  0  0  0  0  0  0
   -0.3634    0.8789    2.1546 C   0  0  0  0  0  0  0  0  0  0  0  0
   -0.0343    1.6583   -2.3606 O   0  0  0  0  0  0  0  0  0  0  0  0
   -1.0927    1.9942   -2.1438 O   0  0  0  0  0  0  0  0  0  0  0  0
   -1.1441    1.6401    2.6620 O   0  0  0  0  0  0  0  0  0  0  0  0
    0.5189    0.0371    3.8963 H   0  0  0  0  0  0  0  0  0  0  0  0
   -0.6355   -1.0183    3.0833 H   0  0  0  0  0  0  0  0  0  0  0  0
    0.9788   -0.7796    2.3967 H   0  0  0  0  0  0  0  0  0  0  0  0
   -0.6659    1.6281    0.1921 H   0  0  0  0  0  0  0  0  0  0  0  0
    0.3120    0.1566    0.2497 H   0  0  0  0  0  0  0  0  0  0  0  0
    1.0076    1.7094    0.7443 H   0  0  0  0  0  0  0  0  0  0  0  0
  1  3  1  0
  1  7  1  0
  1  8  1  0
  1  9  1  0
  2  3  1  0
  2 10  1  0
  2 11  1  0
  2 12  1  0
  3  6  2  0
  4  5  2  0
M  END
