CC(=O)C.O=O_3
     RDKit          3D

 12 10  0  0  0  0  0  0  0  0999 V2000
   -0.4028    0.6434    2.5700 C   0  0  0  0  0  0  0  0  0  0  0  0
    0.7777   -0.0841    0.4041 C   0  0  0  0  0  0  0  0  0  0  0  0
    0.6341    0.8852    1.5267 C   0  0  0  0  0  0  0  0  0  0  0  0
   -1.4885    2.3303   -0.6454 O   0  0  0  0  0  0  0  0  0  0  0  0
   -2.1895    2.3149    0.2422 O   0  0  0  0  0  0  0  0  0  0  0  0
    1.3505    1.8491    1.5921 O   0  0  0  0  0  0  0  0  0  0  0  0
    0.0319    0.1350    3.4312 H   0  0  0  0  0  0  0  0  0  0  0  0
   -0.8119    1.5943    2.9130 H   0  0  0  0  0  0  0  0  0  0  0  0
   -1.2247    0.0372    2.1865 H   0  0  0  0  0  0  0  0  0  0  0  0
    1.8318   -0.3099    0.2396 H   0  0  0  0  0  0  0  0  0  0  0  0
    0.3788    0.3406   -0.5177 H   0  0  0  0  0  0  0  0  0  0  0  0
    0.2550   -1.0194    0.6093 H   0  0  0  0  0  0  0  0  0  0  0  0
  1  3  1  0
  1  7  1  0
  1  8  1  0
  1  9  1  0
  2  3  1  0
  2 10  1  0
  2 11  1  0
  2 12  1  0
  3  6  2  0
  4  5  2  0
M  END
