CC(=O)C.O=O_10
     RDKit          3D

 12 10  0  0  0  0  0  0  0  0999 V2000
   -0.3565    0.6936    2.5302 C   0  0  0  0  0  0  0  0  0  0  0  0
    0.6972    0.1254    0.2559 C   0  0  0  0  0  0  0  0  0  0  0  0
    0.3636   -0.2720    1.6533 C   0  0  0  0  0  0  0  0  0  0  0  0
   -1.1654    2.8614   -0.4018 O   0  0  0  0  0  0  0  0  0  0  0  0
   -1.7964    3.1959    0.4754 O   0  0  0  0  0  0  0  0  0  0  0  0
    0.6671   -1.3596    2.0674 O   0  0  0  0  0  0  0  0  0  0  0  0
    0.3301    1.1383    3.2513 H   0  0  0  0  0  0  0  0  0  0  0  0
   -0.8184    1.4945    1.9515 H   0  0  0  0  0  0  0  0  0  0  0  0
   -1.1398    0.1783    3.0870 H   0  0  0  0  0  0  0  0  0  0  0  0
    1.6240   -0.3574   -0.0555 H   0  0  0  0  0  0  0  0  0  0  0  0
    0.8282    1.2048    0.1669 H   0  0  0  0  0  0  0  0  0  0  0  0
   -0.0911   -0.1865   -0.4301 H   0  0  0  0  0  0  0  0  0  0  0  0
  1  3  1  0
  1  7  1  0
  1  8  1  0
  1  9  1  0
  2  3  1  0
  2 10  1  0
  2 11  1  0
  2 12  1  0
  3  6  2  0
  4  5  2  0
M  END
