CC(=O)C.O=O_6
     RDKit          3D

 12 10  0  0  0  0  0  0  0  0999 V2000
   -0.5314    0.9461    1.6035 C   0  0  0  0  0  0  0  0  0  0  0  0
    1.2582   -0.6505    0.6776 C   0  0  0  0  0  0  0  0  0  0  0  0
    0.9025    0.6309    1.3491 C   0  0  0  0  0  0  0  0  0  0  0  0
   -2.8167    3.0409    0.7887 O   0  0  0  0  0  0  0  0  0  0  0  0
   -2.8139    3.1786    1.9115 O   0  0  0  0  0  0  0  0  0  0  0  0
    1.7624    1.4004    1.6878 O   0  0  0  0  0  0  0  0  0  0  0  0
   -0.6819    2.0258    1.5665 H   0  0  0  0  0  0  0  0  0  0  0  0
   -1.1823    0.4845    0.8597 H   0  0  0  0  0  0  0  0  0  0  0  0
   -0.8317    0.5989    2.5928 H   0  0  0  0  0  0  0  0  0  0  0  0
    1.5714   -0.4665   -0.3506 H   0  0  0  0  0  0  0  0  0  0  0  0
    0.4174   -1.3455    0.6649 H   0  0  0  0  0  0  0  0  0  0  0  0
    2.0884   -1.1270    1.2001 H   0  0  0  0  0  0  0  0  0  0  0  0
  1  3  1  0
  1  7  1  0
  1  8  1  0
  1  9  1  0
  2  3  1  0
  2 10  1  0
  2 11  1  0
  2 12  1  0
  3  6  2  0
  4  5  2  0
M  END
