CC(=O)C.O=O_14
     RDKit          3D

 12 10  0  0  0  0  0  0  0  0999 V2000
   -0.1792   -0.2119    2.8972 C   0  0  0  0  0  0  0  0  0  0  0  0
    0.3476    0.8592    0.6178 C   0  0  0  0  0  0  0  0  0  0  0  0
    0.3795    0.9212    2.1054 C   0  0  0  0  0  0  0  0  0  0  0  0
   -1.6505    1.8600   -1.6997 O   0  0  0  0  0  0  0  0  0  0  0  0
   -0.7029    2.3652   -2.0556 O   0  0  0  0  0  0  0  0  0  0  0  0
    0.8791    1.8649    2.6589 O   0  0  0  0  0  0  0  0  0  0  0  0
    0.5982   -0.9438    3.1200 H   0  0  0  0  0  0  0  0  0  0  0  0
   -0.5733    0.1581    3.8444 H   0  0  0  0  0  0  0  0  0  0  0  0
   -0.9878   -0.7148    2.3648 H   0  0  0  0  0  0  0  0  0  0  0  0
   -0.0796    1.7795    0.2179 H   0  0  0  0  0  0  0  0  0  0  0  0
   -0.2472    0.0183    0.2586 H   0  0  0  0  0  0  0  0  0  0  0  0
    1.3588    0.7607    0.2218 H   0  0  0  0  0  0  0  0  0  0  0  0
  1  3  1  0
  1  7  1  0
  1  8  1  0
  1  9  1  0
  2  3  1  0
  2 10  1  0
  2 11  1  0
  2 12  1  0
  3  6  2  0
  4  5  2  0
M  END
