CC(=O)C.O=O_13
     RDKit          3D

 12 10  0  0  0  0  0  0  0  0999 V2000
   -0.5324    0.6400    2.1620 C   0  0  0  0  0  0  0  0  0  0  0  0
    1.3197   -0.3138    0.6576 C   0  0  0  0  0  0  0  0  0  0  0  0
    0.5357    0.8556    1.1443 C   0  0  0  0  0  0  0  0  0  0  0  0
   -2.9373    2.5344    0.8053 O   0  0  0  0  0  0  0  0  0  0  0  0
   -2.1508    3.0963    0.2177 O   0  0  0  0  0  0  0  0  0  0  0  0
    0.7567    1.9566    0.7136 O   0  0  0  0  0  0  0  0  0  0  0  0
   -0.2665   -0.1567    2.8581 H   0  0  0  0  0  0  0  0  0  0  0  0
   -0.6878    1.5550    2.7345 H   0  0  0  0  0  0  0  0  0  0  0  0
   -1.4760    0.3808    1.6805 H   0  0  0  0  0  0  0  0  0  0  0  0
    0.8871   -1.2571    0.9937 H   0  0  0  0  0  0  0  0  0  0  0  0
    2.3477   -0.2567    1.0170 H   0  0  0  0  0  0  0  0  0  0  0  0
    1.3463   -0.3178   -0.4325 H   0  0  0  0  0  0  0  0  0  0  0  0
  1  3  1  0
  1  7  1  0
  1  8  1  0
  1  9  1  0
  2  3  1  0
  2 10  1  0
  2 11  1  0
  2 12  1  0
  3  6  2  0
  4  5  2  0
M  END
