O/C=C/C=O.O_4
     RDKit          3D

 12 10  0  0  0  0  0  0  0  0999 V2000
    0.5592    1.3118    1.6937 C   0  0  0  0  0  0  0  0  0  0  0  0
   -0.4978    0.7164    1.0982 C   0  0  0  0  0  0  0  0  0  0  0  0
   -0.6730    0.6746   -0.3163 C   0  0  0  0  0  0  0  0  0  0  0  0
    0.7195    1.3481    3.0352 O   0  0  0  0  0  0  0  0  0  0  0  0
   -3.1094   -0.7955    0.5644 O   0  0  0  0  0  0  0  0  0  0  0  0
    0.0781    1.1513   -1.1324 O   0  0  0  0  0  0  0  0  0  0  0  0
   -4.0051   -0.4254    0.6132 H   0  0  0  0  0  0  0  0  0  0  0  0
    1.5446    1.8222    3.2823 H   0  0  0  0  0  0  0  0  0  0  0  0
    1.3136    1.7820    1.0724 H   0  0  0  0  0  0  0  0  0  0  0  0
   -1.5482    0.1781   -0.7158 H   0  0  0  0  0  0  0  0  0  0  0  0
   -3.2222   -1.7586    0.5303 H   0  0  0  0  0  0  0  0  0  0  0  0
   -1.2359    0.2552    1.7313 H   0  0  0  0  0  0  0  0  0  0  0  0
  1  2  2  0
  1  4  1  0
  1  9  1  0
  2  3  1  0
  2 12  1  0
  3  6  2  0
  3 10  1  0
  4  8  1  0
  5  7  1  0
  5 11  1  0
M  END
