O/C=C/C=O.O_0
     RDKit          3D

 12 10  0  0  0  0  0  0  0  0999 V2000
   -0.0291    0.7579    1.7266 C   0  0  0  0  0  0  0  0  0  0  0  0
    0.4973    0.3832    0.5379 C   0  0  0  0  0  0  0  0  0  0  0  0
   -0.2931    0.0331   -0.5984 C   0  0  0  0  0  0  0  0  0  0  0  0
    0.7300    1.0867    2.7941 O   0  0  0  0  0  0  0  0  0  0  0  0
   -3.3293    0.6934    1.4553 O   0  0  0  0  0  0  0  0  0  0  0  0
   -1.4994    0.0261   -0.6448 O   0  0  0  0  0  0  0  0  0  0  0  0
   -4.2387    0.5972    1.1298 H   0  0  0  0  0  0  0  0  0  0  0  0
    0.1737    1.3313    3.5660 H   0  0  0  0  0  0  0  0  0  0  0  0
   -1.1059    0.8017    1.8456 H   0  0  0  0  0  0  0  0  0  0  0  0
    0.2042   -0.2567   -1.5164 H   0  0  0  0  0  0  0  0  0  0  0  0
   -2.7570    0.4532    0.6977 H   0  0  0  0  0  0  0  0  0  0  0  0
    1.5709    0.3532    0.4631 H   0  0  0  0  0  0  0  0  0  0  0  0
  1  2  2  0
  1  4  1  0
  1  9  1  0
  2  3  1  0
  2 12  1  0
  3  6  2  0
  3 10  1  0
  4  8  1  0
  5  7  1  0
  5 11  1  0
M  END
