O/C=C/C=O.O_2
     RDKit          3D

 12 10  0  0  0  0  0  0  0  0999 V2000
   -0.4637    0.4611    0.8391 C   0  0  0  0  0  0  0  0  0  0  0  0
    0.7152    0.3470    0.1870 C   0  0  0  0  0  0  0  0  0  0  0  0
    0.8660    0.6813   -1.1923 C   0  0  0  0  0  0  0  0  0  0  0  0
   -0.6178    0.1473    2.1435 O   0  0  0  0  0  0  0  0  0  0  0  0
   -3.3333    0.5733    3.0351 O   0  0  0  0  0  0  0  0  0  0  0  0
   -0.0210    1.0906   -1.9026 O   0  0  0  0  0  0  0  0  0  0  0  0
   -4.0670   -0.0602    3.0097 H   0  0  0  0  0  0  0  0  0  0  0  0
   -1.5503    0.2961    2.4395 H   0  0  0  0  0  0  0  0  0  0  0  0
   -1.3317    0.8209    0.2966 H   0  0  0  0  0  0  0  0  0  0  0  0
    1.8344    0.5703   -1.6635 H   0  0  0  0  0  0  0  0  0  0  0  0
   -3.6684    1.3446    3.5174 H   0  0  0  0  0  0  0  0  0  0  0  0
    1.5611   -0.0120    0.7469 H   0  0  0  0  0  0  0  0  0  0  0  0
  1  2  2  0
  1  4  1  0
  1  9  1  0
  2  3  1  0
  2 12  1  0
  3  6  2  0
  3 10  1  0
  4  8  1  0
  5  7  1  0
  5 11  1  0
M  END
