O/C=C/C=O.O_3
     RDKit          3D

 12 10  0  0  0  0  0  0  0  0999 V2000
   -0.1160    1.1149    1.3477 C   0  0  0  0  0  0  0  0  0  0  0  0
   -0.4677    0.4711    0.2108 C   0  0  0  0  0  0  0  0  0  0  0  0
    0.3323    0.5083   -0.9704 C   0  0  0  0  0  0  0  0  0  0  0  0
   -0.8606    1.0912    2.4768 O   0  0  0  0  0  0  0  0  0  0  0  0
   -3.1707   -0.5729    1.8350 O   0  0  0  0  0  0  0  0  0  0  0  0
    1.3781    1.1033   -1.0718 O   0  0  0  0  0  0  0  0  0  0  0  0
   -3.7439   -0.6360    2.6161 H   0  0  0  0  0  0  0  0  0  0  0  0
   -0.4369    1.6184    3.1886 H   0  0  0  0  0  0  0  0  0  0  0  0
    0.8097    1.6812    1.3621 H   0  0  0  0  0  0  0  0  0  0  0  0
    0.0058   -0.0249   -1.8552 H   0  0  0  0  0  0  0  0  0  0  0  0
   -2.4179   -0.0083    2.1029 H   0  0  0  0  0  0  0  0  0  0  0  0
   -1.3887   -0.0859    0.2139 H   0  0  0  0  0  0  0  0  0  0  0  0
  1  2  2  0
  1  4  1  0
  1  9  1  0
  2  3  1  0
  2 12  1  0
  3  6  2  0
  3 10  1  0
  4  8  1  0
  5  7  1  0
  5 11  1  0
M  END
