O/C=C/C=O.O_1
     RDKit          3D

 12 10  0  0  0  0  0  0  0  0999 V2000
    0.6352    1.2162    1.9629 C   0  0  0  0  0  0  0  0  0  0  0  0
    0.5513    0.5112    0.8117 C   0  0  0  0  0  0  0  0  0  0  0  0
   -0.6960    0.1018    0.2512 C   0  0  0  0  0  0  0  0  0  0  0  0
    1.8119    1.6075    2.5003 O   0  0  0  0  0  0  0  0  0  0  0  0
   -4.3140   -0.5006   -0.4228 O   0  0  0  0  0  0  0  0  0  0  0  0
   -1.7768    0.3368    0.7353 O   0  0  0  0  0  0  0  0  0  0  0  0
   -3.4590   -0.2197   -0.0353 H   0  0  0  0  0  0  0  0  0  0  0  0
    1.6780    2.1082    3.3352 H   0  0  0  0  0  0  0  0  0  0  0  0
   -0.2791    1.4827    2.4833 H   0  0  0  0  0  0  0  0  0  0  0  0
   -0.7069   -0.4617   -0.6743 H   0  0  0  0  0  0  0  0  0  0  0  0
   -4.9930   -0.1809    0.1948 H   0  0  0  0  0  0  0  0  0  0  0  0
    1.4719    0.2589    0.3142 H   0  0  0  0  0  0  0  0  0  0  0  0
  1  2  2  0
  1  4  1  0
  1  9  1  0
  2  3  1  0
  2 12  1  0
  3  6  2  0
  3 10  1  0
  4  8  1  0
  5  7  1  0
  5 11  1  0
M  END
