O/C=C/C(O)O_5
     RDKit          3D

 12 11  0  0  0  0  0  0  0  0999 V2000
   -0.1952   -0.1837    2.0520 C   0  0  0  0  0  0  0  0  0  0  0  0
    0.2333    0.3627    0.7286 C   0  0  0  0  0  0  0  0  0  0  0  0
    0.5381   -0.4160   -0.3064 C   0  0  0  0  0  0  0  0  0  0  0  0
   -0.2841    0.8333    3.0357 O   0  0  0  0  0  0  0  0  0  0  0  0
    0.5906   -1.2959    2.4434 O   0  0  0  0  0  0  0  0  0  0  0  0
    0.9220    0.0857   -1.5219 O   0  0  0  0  0  0  0  0  0  0  0  0
    1.4971   -0.9969    2.6650 H   0  0  0  0  0  0  0  0  0  0  0  0
    0.6147    1.1388    3.2790 H   0  0  0  0  0  0  0  0  0  0  0  0
   -1.2207   -0.5775    1.9527 H   0  0  0  0  0  0  0  0  0  0  0  0
    0.4881   -1.4918   -0.1870 H   0  0  0  0  0  0  0  0  0  0  0  0
    1.1006   -0.6390   -2.1625 H   0  0  0  0  0  0  0  0  0  0  0  0
    0.2715    1.4289    0.5991 H   0  0  0  0  0  0  0  0  0  0  0  0
  1  2  1  0
  1  4  1  0
  1  5  1  0
  1  9  1  0
  2  3  2  0
  2 12  1  0
  3  6  1  0
  3 10  1  0
  4  8  1  0
  5  7  1  0
  6 11  1  0
M  END
