O/C=C/C(O)O_15
     RDKit          3D

 12 11  0  0  0  0  0  0  0  0999 V2000
    0.3291   -0.3709    2.0071 C   0  0  0  0  0  0  0  0  0  0  0  0
    0.9991   -0.3260    0.6717 C   0  0  0  0  0  0  0  0  0  0  0  0
    0.3389   -0.0937   -0.4598 C   0  0  0  0  0  0  0  0  0  0  0  0
   -0.6606    0.6415    2.1217 O   0  0  0  0  0  0  0  0  0  0  0  0
    1.2897   -0.3653    3.0535 O   0  0  0  0  0  0  0  0  0  0  0  0
    0.9524   -0.0744   -1.6840 O   0  0  0  0  0  0  0  0  0  0  0  0
    0.8514   -0.2799    3.9267 H   0  0  0  0  0  0  0  0  0  0  0  0
   -0.9828    0.7064    3.0457 H   0  0  0  0  0  0  0  0  0  0  0  0
   -0.2050   -1.3343    2.0796 H   0  0  0  0  0  0  0  0  0  0  0  0
   -0.7278    0.0921   -0.4146 H   0  0  0  0  0  0  0  0  0  0  0  0
    0.3115    0.1465   -2.3967 H   0  0  0  0  0  0  0  0  0  0  0  0
    2.0601   -0.4935    0.6270 H   0  0  0  0  0  0  0  0  0  0  0  0
  1  2  1  0
  1  4  1  0
  1  5  1  0
  1  9  1  0
  2  3  2  0
  2 12  1  0
  3  6  1  0
  3 10  1  0
  4  8  1  0
  5  7  1  0
  6 11  1  0
M  END
