O/C=C/C(O)O_11
     RDKit          3D

 12 11  0  0  0  0  0  0  0  0999 V2000
    0.2228   -0.6050    2.1185 C   0  0  0  0  0  0  0  0  0  0  0  0
    0.4941   -0.6390    0.6473 C   0  0  0  0  0  0  0  0  0  0  0  0
    0.5083    0.4650   -0.0930 C   0  0  0  0  0  0  0  0  0  0  0  0
   -0.8007    0.3263    2.4412 O   0  0  0  0  0  0  0  0  0  0  0  0
    1.4134   -0.3865    2.8578 O   0  0  0  0  0  0  0  0  0  0  0  0
    0.7995    0.5146   -1.4261 O   0  0  0  0  0  0  0  0  0  0  0  0
    1.6068    0.5722    2.8542 H   0  0  0  0  0  0  0  0  0  0  0  0
   -1.6252    0.1246    1.9473 H   0  0  0  0  0  0  0  0  0  0  0  0
   -0.1338   -1.5955    2.4504 H   0  0  0  0  0  0  0  0  0  0  0  0
    0.2750    1.4209    0.3582 H   0  0  0  0  0  0  0  0  0  0  0  0
    1.0234   -0.3820   -1.7605 H   0  0  0  0  0  0  0  0  0  0  0  0
    0.7723   -1.5670    0.1824 H   0  0  0  0  0  0  0  0  0  0  0  0
  1  2  1  0
  1  4  1  0
  1  5  1  0
  1  9  1  0
  2  3  2  0
  2 12  1  0
  3  6  1  0
  3 10  1  0
  4  8  1  0
  5  7  1  0
  6 11  1  0
M  END
