O/C=C/C(O)O_7
     RDKit          3D

 12 11  0  0  0  0  0  0  0  0999 V2000
    0.0684   -0.0301    1.9210 C   0  0  0  0  0  0  0  0  0  0  0  0
    0.3838    0.2254    0.4834 C   0  0  0  0  0  0  0  0  0  0  0  0
    0.5625   -0.7549   -0.3961 C   0  0  0  0  0  0  0  0  0  0  0  0
    0.1378    1.1727    2.6739 O   0  0  0  0  0  0  0  0  0  0  0  0
    0.8609   -1.0872    2.4415 O   0  0  0  0  0  0  0  0  0  0  0  0
    0.8384   -0.5767   -1.7208 O   0  0  0  0  0  0  0  0  0  0  0  0
    0.7549   -1.1535    3.4141 H   0  0  0  0  0  0  0  0  0  0  0  0
    0.0477    0.9873    3.6327 H   0  0  0  0  0  0  0  0  0  0  0  0
   -0.9795   -0.3727    1.9767 H   0  0  0  0  0  0  0  0  0  0  0  0
    0.4974   -1.7858   -0.0727 H   0  0  0  0  0  0  0  0  0  0  0  0
    0.9191    0.3808   -1.9272 H   0  0  0  0  0  0  0  0  0  0  0  0
    0.4645    1.2432    0.1514 H   0  0  0  0  0  0  0  0  0  0  0  0
  1  2  1  0
  1  4  1  0
  1  5  1  0
  1  9  1  0
  2  3  2  0
  2 12  1  0
  3  6  1  0
  3 10  1  0
  4  8  1  0
  5  7  1  0
  6 11  1  0
M  END
