O/C=C/C(O)O_10
     RDKit          3D

 12 11  0  0  0  0  0  0  0  0999 V2000
    0.3235   -0.4036    2.0645 C   0  0  0  0  0  0  0  0  0  0  0  0
    0.8204   -0.1956    0.6726 C   0  0  0  0  0  0  0  0  0  0  0  0
    0.0174   -0.1726   -0.3867 C   0  0  0  0  0  0  0  0  0  0  0  0
   -0.3351    0.7452    2.5802 O   0  0  0  0  0  0  0  0  0  0  0  0
    1.3676   -0.8549    2.9174 O   0  0  0  0  0  0  0  0  0  0  0  0
    0.4245    0.0517   -1.6697 O   0  0  0  0  0  0  0  0  0  0  0  0
    1.1271   -0.6385    3.8408 H   0  0  0  0  0  0  0  0  0  0  0  0
   -0.9871    1.0965    1.9359 H   0  0  0  0  0  0  0  0  0  0  0  0
   -0.4244   -1.2155    2.0538 H   0  0  0  0  0  0  0  0  0  0  0  0
   -1.0442   -0.3385   -0.2644 H   0  0  0  0  0  0  0  0  0  0  0  0
    1.3977    0.1853   -1.7012 H   0  0  0  0  0  0  0  0  0  0  0  0
    1.8684   -0.0109    0.5346 H   0  0  0  0  0  0  0  0  0  0  0  0
  1  2  1  0
  1  4  1  0
  1  5  1  0
  1  9  1  0
  2  3  2  0
  2 12  1  0
  3  6  1  0
  3 10  1  0
  4  8  1  0
  5  7  1  0
  6 11  1  0
M  END
