O/C=C/C(O)O
     RDKit          3D

 12 11  0  0  0  0  0  0  0  0999 V2000
    0.2480   -0.4493    2.0689 C   0  0  0  0  0  0  0  0  0  0  0  0
    0.9232   -0.1571    0.7587 C   0  0  0  0  0  0  0  0  0  0  0  0
    0.2461   -0.1762   -0.3876 C   0  0  0  0  0  0  0  0  0  0  0  0
   -0.7413    0.5123    2.3350 O   0  0  0  0  0  0  0  0  0  0  0  0
    1.2016   -0.4615    3.0986 O   0  0  0  0  0  0  0  0  0  0  0  0
    0.8984    0.0919   -1.5854 O   0  0  0  0  0  0  0  0  0  0  0  0
    0.7299   -0.7777    3.9129 H   0  0  0  0  0  0  0  0  0  0  0  0
   -0.2752    1.3762    2.4874 H   0  0  0  0  0  0  0  0  0  0  0  0
   -0.2330   -1.4514    2.0019 H   0  0  0  0  0  0  0  0  0  0  0  0
   -0.8143   -0.4001   -0.3966 H   0  0  0  0  0  0  0  0  0  0  0  0
    0.3882    0.0787   -2.4600 H   0  0  0  0  0  0  0  0  0  0  0  0
    1.9843    0.0628    0.7440 H   0  0  0  0  0  0  0  0  0  0  0  0
  1  2  1  0
  1  4  1  0
  1  5  1  0
  1  9  1  0
  2  3  2  0
  2 12  1  0
  3  6  1  0
  3 10  1  0
  4  8  1  0
  5  7  1  0
  6 11  1  0
M  END
