O/C=C/C(O)O_18
     RDKit          3D

 12 11  0  0  0  0  0  0  0  0999 V2000
    0.2559   -0.5652    2.2074 C   0  0  0  0  0  0  0  0  0  0  0  0
    0.5411   -0.8279    0.7611 C   0  0  0  0  0  0  0  0  0  0  0  0
    0.5342    0.1405   -0.1515 C   0  0  0  0  0  0  0  0  0  0  0  0
   -0.8253    0.3426    2.3693 O   0  0  0  0  0  0  0  0  0  0  0  0
    1.4240   -0.1545    2.8989 O   0  0  0  0  0  0  0  0  0  0  0  0
    0.8307   -0.0796   -1.4710 O   0  0  0  0  0  0  0  0  0  0  0  0
    1.5630    0.7989    2.7302 H   0  0  0  0  0  0  0  0  0  0  0  0
   -1.6302    0.0084    1.9167 H   0  0  0  0  0  0  0  0  0  0  0  0
   -0.0435   -1.5060    2.7009 H   0  0  0  0  0  0  0  0  0  0  0  0
    0.2814    1.1494    0.1529 H   0  0  0  0  0  0  0  0  0  0  0  0
    0.7865    0.7563   -1.9877 H   0  0  0  0  0  0  0  0  0  0  0  0
    0.8381   -1.8143    0.4507 H   0  0  0  0  0  0  0  0  0  0  0  0
  1  2  1  0
  1  4  1  0
  1  5  1  0
  1  9  1  0
  2  3  2  0
  2 12  1  0
  3  6  1  0
  3 10  1  0
  4  8  1  0
  5  7  1  0
  6 11  1  0
M  END
