O/C=C/C(O)O_17
     RDKit          3D

 12 11  0  0  0  0  0  0  0  0999 V2000
    0.1154   -0.1790    2.0689 C   0  0  0  0  0  0  0  0  0  0  0  0
    0.4859    0.3565    0.7233 C   0  0  0  0  0  0  0  0  0  0  0  0
    0.4879   -0.3989   -0.3722 C   0  0  0  0  0  0  0  0  0  0  0  0
    0.3177    0.7728    3.1049 O   0  0  0  0  0  0  0  0  0  0  0  0
    0.7678   -1.4144    2.3342 O   0  0  0  0  0  0  0  0  0  0  0  0
    0.8148    0.0908   -1.6089 O   0  0  0  0  0  0  0  0  0  0  0  0
    0.8633   -1.5065    3.3038 H   0  0  0  0  0  0  0  0  0  0  0  0
   -0.1335    1.6199    2.8966 H   0  0  0  0  0  0  0  0  0  0  0  0
   -0.9640   -0.4108    2.0659 H   0  0  0  0  0  0  0  0  0  0  0  0
    0.2240   -1.4468   -0.2882 H   0  0  0  0  0  0  0  0  0  0  0  0
    0.7987   -0.6223   -2.2862 H   0  0  0  0  0  0  0  0  0  0  0  0
    0.7779    1.3872    0.6357 H   0  0  0  0  0  0  0  0  0  0  0  0
  1  2  1  0
  1  4  1  0
  1  5  1  0
  1  9  1  0
  2  3  2  0
  2 12  1  0
  3  6  1  0
  3 10  1  0
  4  8  1  0
  5  7  1  0
  6 11  1  0
M  END
