O/C=C/C(O)O_1
     RDKit          3D

 12 11  0  0  0  0  0  0  0  0999 V2000
    0.1838   -0.4901    2.0067 C   0  0  0  0  0  0  0  0  0  0  0  0
    0.7733   -0.3996    0.6361 C   0  0  0  0  0  0  0  0  0  0  0  0
    0.0926    0.0682   -0.4054 C   0  0  0  0  0  0  0  0  0  0  0  0
   -0.7997    0.5089    2.2234 O   0  0  0  0  0  0  0  0  0  0  0  0
    1.1828   -0.4979    3.0097 O   0  0  0  0  0  0  0  0  0  0  0  0
    0.5681    0.1470   -1.6824 O   0  0  0  0  0  0  0  0  0  0  0  0
    1.6023    0.3862    3.0380 H   0  0  0  0  0  0  0  0  0  0  0  0
   -1.0633    0.5010    3.1665 H   0  0  0  0  0  0  0  0  0  0  0  0
   -0.3316   -1.4618    2.0949 H   0  0  0  0  0  0  0  0  0  0  0  0
   -0.9187    0.4285   -0.2667 H   0  0  0  0  0  0  0  0  0  0  0  0
    1.4924   -0.1847   -1.7237 H   0  0  0  0  0  0  0  0  0  0  0  0
    1.7737   -0.7570    0.4808 H   0  0  0  0  0  0  0  0  0  0  0  0
  1  2  1  0
  1  4  1  0
  1  5  1  0
  1  9  1  0
  2  3  2  0
  2 12  1  0
  3  6  1  0
  3 10  1  0
  4  8  1  0
  5  7  1  0
  6 11  1  0
M  END
