O/C=C/C(O)O_9
     RDKit          3D

 12 11  0  0  0  0  0  0  0  0999 V2000
   -0.0066   -0.1957    2.0994 C   0  0  0  0  0  0  0  0  0  0  0  0
    0.5243    0.3095    0.7966 C   0  0  0  0  0  0  0  0  0  0  0  0
    0.4660   -0.4031   -0.3257 C   0  0  0  0  0  0  0  0  0  0  0  0
    0.1591    0.7595    3.1390 O   0  0  0  0  0  0  0  0  0  0  0  0
    0.5411   -1.4622    2.4261 O   0  0  0  0  0  0  0  0  0  0  0  0
    0.9577    0.0556   -1.5190 O   0  0  0  0  0  0  0  0  0  0  0  0
    1.4255   -1.3180    2.8175 H   0  0  0  0  0  0  0  0  0  0  0  0
   -0.2782    1.6085    2.9094 H   0  0  0  0  0  0  0  0  0  0  0  0
   -1.0901   -0.3755    1.9959 H   0  0  0  0  0  0  0  0  0  0  0  0
    0.0161   -1.3886   -0.3008 H   0  0  0  0  0  0  0  0  0  0  0  0
    0.8446   -0.6159   -2.2288 H   0  0  0  0  0  0  0  0  0  0  0  0
    0.9964    1.2745    0.7682 H   0  0  0  0  0  0  0  0  0  0  0  0
  1  2  1  0
  1  4  1  0
  1  5  1  0
  1  9  1  0
  2  3  2  0
  2 12  1  0
  3  6  1  0
  3 10  1  0
  4  8  1  0
  5  7  1  0
  6 11  1  0
M  END
