O/C=C/C(O)O_13
     RDKit          3D

 12 11  0  0  0  0  0  0  0  0999 V2000
    0.1309   -0.1942    2.0324 C   0  0  0  0  0  0  0  0  0  0  0  0
    0.4682    0.1733    0.6245 C   0  0  0  0  0  0  0  0  0  0  0  0
    0.4128   -0.7048   -0.3723 C   0  0  0  0  0  0  0  0  0  0  0  0
    0.2566    0.9064    2.9230 O   0  0  0  0  0  0  0  0  0  0  0  0
    0.8724   -1.3279    2.4631 O   0  0  0  0  0  0  0  0  0  0  0  0
    0.7163   -0.4304   -1.6744 O   0  0  0  0  0  0  0  0  0  0  0  0
    0.9504   -1.2921    3.4378 H   0  0  0  0  0  0  0  0  0  0  0  0
   -0.2614    1.6772    2.6036 H   0  0  0  0  0  0  0  0  0  0  0  0
   -0.9283   -0.5035    2.0677 H   0  0  0  0  0  0  0  0  0  0  0  0
    0.1139   -1.7264   -0.1761 H   0  0  0  0  0  0  0  0  0  0  0  0
    1.0262    0.4981   -1.7647 H   0  0  0  0  0  0  0  0  0  0  0  0
    0.7979    1.1729    0.4133 H   0  0  0  0  0  0  0  0  0  0  0  0
  1  2  1  0
  1  4  1  0
  1  5  1  0
  1  9  1  0
  2  3  2  0
  2 12  1  0
  3  6  1  0
  3 10  1  0
  4  8  1  0
  5  7  1  0
  6 11  1  0
M  END
