O/C=C/C(O)O_16
     RDKit          3D

 12 11  0  0  0  0  0  0  0  0999 V2000
    0.2412   -0.4803    2.1265 C   0  0  0  0  0  0  0  0  0  0  0  0
    0.1318   -0.7314    0.6547 C   0  0  0  0  0  0  0  0  0  0  0  0
    0.7017    0.0735   -0.2381 C   0  0  0  0  0  0  0  0  0  0  0  0
   -0.6085    0.5785    2.5459 O   0  0  0  0  0  0  0  0  0  0  0  0
    1.5924   -0.2721    2.5136 O   0  0  0  0  0  0  0  0  0  0  0  0
    0.5822   -0.1127   -1.5903 O   0  0  0  0  0  0  0  0  0  0  0  0
    1.5992    0.1959    3.3731 H   0  0  0  0  0  0  0  0  0  0  0  0
   -1.5184    0.4503    2.1999 H   0  0  0  0  0  0  0  0  0  0  0  0
   -0.0888   -1.3801    2.6747 H   0  0  0  0  0  0  0  0  0  0  0  0
    1.2878    0.9161    0.1117 H   0  0  0  0  0  0  0  0  0  0  0  0
    1.0899    0.5682   -2.0863 H   0  0  0  0  0  0  0  0  0  0  0  0
   -0.4549   -1.5573    0.2922 H   0  0  0  0  0  0  0  0  0  0  0  0
  1  2  1  0
  1  4  1  0
  1  5  1  0
  1  9  1  0
  2  3  2  0
  2 12  1  0
  3  6  1  0
  3 10  1  0
  4  8  1  0
  5  7  1  0
  6 11  1  0
M  END
