O/C=C/C(O)O_14
     RDKit          3D

 12 11  0  0  0  0  0  0  0  0999 V2000
    0.1360   -0.3705    2.0425 C   0  0  0  0  0  0  0  0  0  0  0  0
    0.7070   -0.4501    0.6607 C   0  0  0  0  0  0  0  0  0  0  0  0
    0.1540    0.1724   -0.3755 C   0  0  0  0  0  0  0  0  0  0  0  0
   -1.0531    0.4095    2.0764 O   0  0  0  0  0  0  0  0  0  0  0  0
    1.0930    0.0699    2.9965 O   0  0  0  0  0  0  0  0  0  0  0  0
    0.6285    0.1493   -1.6550 O   0  0  0  0  0  0  0  0  0  0  0  0
    1.9243   -0.4477    2.9246 H   0  0  0  0  0  0  0  0  0  0  0  0
   -1.1743    0.7432    2.9879 H   0  0  0  0  0  0  0  0  0  0  0  0
   -0.1714   -1.3842    2.3549 H   0  0  0  0  0  0  0  0  0  0  0  0
   -0.7464    0.7559   -0.2292 H   0  0  0  0  0  0  0  0  0  0  0  0
    1.4517   -0.3856   -1.7040 H   0  0  0  0  0  0  0  0  0  0  0  0
    1.6067   -1.0135    0.4978 H   0  0  0  0  0  0  0  0  0  0  0  0
  1  2  1  0
  1  4  1  0
  1  5  1  0
  1  9  1  0
  2  3  2  0
  2 12  1  0
  3  6  1  0
  3 10  1  0
  4  8  1  0
  5  7  1  0
  6 11  1  0
M  END
