O/C=C/C(O)O_0
     RDKit          3D

 12 11  0  0  0  0  0  0  0  0999 V2000
   -0.0751   -0.0179    1.9577 C   0  0  0  0  0  0  0  0  0  0  0  0
    0.4183    0.2052    0.5664 C   0  0  0  0  0  0  0  0  0  0  0  0
    0.4733   -0.7669   -0.3384 C   0  0  0  0  0  0  0  0  0  0  0  0
    0.0770    1.1489    2.7503 O   0  0  0  0  0  0  0  0  0  0  0  0
    0.5091   -1.1618    2.5512 O   0  0  0  0  0  0  0  0  0  0  0  0
    0.9103   -0.6154   -1.6226 O   0  0  0  0  0  0  0  0  0  0  0  0
    1.4622   -0.9880    2.6911 H   0  0  0  0  0  0  0  0  0  0  0  0
   -0.1374    0.9348    3.6816 H   0  0  0  0  0  0  0  0  0  0  0  0
   -1.1566   -0.2306    1.9093 H   0  0  0  0  0  0  0  0  0  0  0  0
    0.1604   -1.7684   -0.0731 H   0  0  0  0  0  0  0  0  0  0  0  0
    1.1792    0.3161   -1.7844 H   0  0  0  0  0  0  0  0  0  0  0  0
    0.7351    1.1926    0.2886 H   0  0  0  0  0  0  0  0  0  0  0  0
  1  2  1  0
  1  4  1  0
  1  5  1  0
  1  9  1  0
  2  3  2  0
  2 12  1  0
  3  6  1  0
  3 10  1  0
  4  8  1  0
  5  7  1  0
  6 11  1  0
M  END
