O/C=C/C(O)O_12
     RDKit          3D

 12 11  0  0  0  0  0  0  0  0999 V2000
    0.2558   -0.5248    2.0581 C   0  0  0  0  0  0  0  0  0  0  0  0
    0.3668   -0.5992    0.5679 C   0  0  0  0  0  0  0  0  0  0  0  0
    0.7377    0.4532   -0.1540 C   0  0  0  0  0  0  0  0  0  0  0  0
   -0.7265    0.4158    2.4693 O   0  0  0  0  0  0  0  0  0  0  0  0
    1.5217   -0.2772    2.6538 O   0  0  0  0  0  0  0  0  0  0  0  0
    0.8635    0.4682   -1.5136 O   0  0  0  0  0  0  0  0  0  0  0  0
    1.3764    0.1053    3.5428 H   0  0  0  0  0  0  0  0  0  0  0  0
   -1.5728    0.2643    1.9954 H   0  0  0  0  0  0  0  0  0  0  0  0
   -0.0704   -1.5042    2.4500 H   0  0  0  0  0  0  0  0  0  0  0  0
    0.9671    1.3917    0.3355 H   0  0  0  0  0  0  0  0  0  0  0  0
    0.6787   -0.4235   -1.8835 H   0  0  0  0  0  0  0  0  0  0  0  0
    0.1580   -1.5211    0.0560 H   0  0  0  0  0  0  0  0  0  0  0  0
  1  2  1  0
  1  4  1  0
  1  5  1  0
  1  9  1  0
  2  3  2  0
  2 12  1  0
  3  6  1  0
  3 10  1  0
  4  8  1  0
  5  7  1  0
  6 11  1  0
M  END
