OO/C(=C/O)/C_0
     RDKit          3D

 12 11  0  0  0  0  0  0  0  0999 V2000
   -0.3089   -0.5088    1.0905 C   0  0  0  0  0  0  0  0  0  0  0  0
    1.1851    0.8383   -0.3100 C   0  0  0  0  0  0  0  0  0  0  0  0
    0.7393    0.3250    0.9966 C   0  0  0  0  0  0  0  0  0  0  0  0
   -1.0237   -0.9304   -0.0167 O   0  0  0  0  0  0  0  0  0  0  0  0
    2.2761    1.8792    1.8670 O   0  0  0  0  0  0  0  0  0  0  0  0
    1.4222    0.7233    2.1409 O   0  0  0  0  0  0  0  0  0  0  0  0
    1.9334    2.5616    2.4680 H   0  0  0  0  0  0  0  0  0  0  0  0
   -1.7424   -1.5467    0.2478 H   0  0  0  0  0  0  0  0  0  0  0  0
   -0.5992   -0.8595    2.0721 H   0  0  0  0  0  0  0  0  0  0  0  0
    2.1811    1.2744   -0.2139 H   0  0  0  0  0  0  0  0  0  0  0  0
    0.5034    1.6085   -0.6730 H   0  0  0  0  0  0  0  0  0  0  0  0
    1.2231    0.0348   -1.0477 H   0  0  0  0  0  0  0  0  0  0  0  0
  1  3  2  0
  1  4  1  0
  1  9  1  0
  2  3  1  0
  2 10  1  0
  2 11  1  0
  2 12  1  0
  3  6  1  0
  4  8  1  0
  5  6  1  0
  5  7  1  0
M  END
