OO/C(=C/O)/C_2
     RDKit          3D

 12 11  0  0  0  0  0  0  0  0999 V2000
   -0.3641   -0.5361    1.3007 C   0  0  0  0  0  0  0  0  0  0  0  0
    1.0611    0.6858   -0.2834 C   0  0  0  0  0  0  0  0  0  0  0  0
    0.6893    0.2634    1.0765 C   0  0  0  0  0  0  0  0  0  0  0  0
   -1.2074   -1.0392    0.3337 O   0  0  0  0  0  0  0  0  0  0  0  0
    2.2388    1.8911    1.7750 O   0  0  0  0  0  0  0  0  0  0  0  0
    1.4594    0.7101    2.1457 O   0  0  0  0  0  0  0  0  0  0  0  0
    1.9476    2.5641    2.4123 H   0  0  0  0  0  0  0  0  0  0  0  0
   -0.9490   -0.7204   -0.5587 H   0  0  0  0  0  0  0  0  0  0  0  0
   -0.5951   -0.8256    2.3162 H   0  0  0  0  0  0  0  0  0  0  0  0
    1.9705    1.2879   -0.2371 H   0  0  0  0  0  0  0  0  0  0  0  0
    0.2765    1.2937   -0.7361 H   0  0  0  0  0  0  0  0  0  0  0  0
    1.2619   -0.1750   -0.9233 H   0  0  0  0  0  0  0  0  0  0  0  0
  1  3  2  0
  1  4  1  0
  1  9  1  0
  2  3  1  0
  2 10  1  0
  2 11  1  0
  2 12  1  0
  3  6  1  0
  4  8  1  0
  5  6  1  0
  5  7  1  0
M  END
