OO/C(=C/O)/C_1
     RDKit          3D

 12 11  0  0  0  0  0  0  0  0999 V2000
   -0.0350   -0.1830    1.1300 C   0  0  0  0  0  0  0  0  0  0  0  0
    1.2058    0.7451   -0.7667 C   0  0  0  0  0  0  0  0  0  0  0  0
    0.9995    0.5429    0.6812 C   0  0  0  0  0  0  0  0  0  0  0  0
   -0.9597   -0.7748    0.2871 O   0  0  0  0  0  0  0  0  0  0  0  0
    1.3591    1.1045    2.9458 O   0  0  0  0  0  0  0  0  0  0  0  0
    1.8921    1.1175    1.5822 O   0  0  0  0  0  0  0  0  0  0  0  0
    1.3173    2.0459    3.1827 H   0  0  0  0  0  0  0  0  0  0  0  0
   -1.6236   -1.2847    0.8024 H   0  0  0  0  0  0  0  0  0  0  0  0
   -0.1420   -0.3049    2.2006 H   0  0  0  0  0  0  0  0  0  0  0  0
    2.1709    1.2196   -0.9498 H   0  0  0  0  0  0  0  0  0  0  0  0
    0.4225    1.3818   -1.1804 H   0  0  0  0  0  0  0  0  0  0  0  0
    1.1826   -0.2101   -1.2938 H   0  0  0  0  0  0  0  0  0  0  0  0
  1  3  2  0
  1  4  1  0
  1  9  1  0
  2  3  1  0
  2 10  1  0
  2 11  1  0
  2 12  1  0
  3  6  1  0
  4  8  1  0
  5  6  1  0
  5  7  1  0
M  END
