OCCC(=O)O_3
     RDKit          3D

 12 11  0  0  0  0  0  0  0  0999 V2000
   -0.7530    0.3912    0.6391 C   0  0  0  0  0  0  0  0  0  0  0  0
    0.2851    0.1990   -0.4518 C   0  0  0  0  0  0  0  0  0  0  0  0
    1.5457    0.9473   -0.1533 C   0  0  0  0  0  0  0  0  0  0  0  0
   -1.9391   -0.3325    0.4116 O   0  0  0  0  0  0  0  0  0  0  0  0
    2.0310    1.7543   -1.1221 O   0  0  0  0  0  0  0  0  0  0  0  0
    2.0856    0.8110    0.9219 O   0  0  0  0  0  0  0  0  0  0  0  0
    2.8505    2.1599   -0.7792 H   0  0  0  0  0  0  0  0  0  0  0  0
   -0.3523    0.0477    1.6031 H   0  0  0  0  0  0  0  0  0  0  0  0
   -1.0027    1.4536    0.7679 H   0  0  0  0  0  0  0  0  0  0  0  0
   -2.3476   -0.0748   -0.4435 H   0  0  0  0  0  0  0  0  0  0  0  0
    0.5144   -0.8658   -0.5583 H   0  0  0  0  0  0  0  0  0  0  0  0
   -0.1087    0.5311   -1.4171 H   0  0  0  0  0  0  0  0  0  0  0  0
  1  2  1  0
  1  4  1  0
  1  8  1  0
  1  9  1  0
  2  3  1  0
  2 11  1  0
  2 12  1  0
  3  5  1  0
  3  6  2  0
  4 10  1  0
  5  7  1  0
M  END
