OCCC(=O)O_5
     RDKit          3D

 12 11  0  0  0  0  0  0  0  0999 V2000
   -0.5552   -0.2159    0.0867 C   0  0  0  0  0  0  0  0  0  0  0  0
   -0.0236    1.1511   -0.3055 C   0  0  0  0  0  0  0  0  0  0  0  0
    1.4648    1.1466   -0.4672 C   0  0  0  0  0  0  0  0  0  0  0  0
   -1.9528   -0.2413    0.2571 O   0  0  0  0  0  0  0  0  0  0  0  0
    2.1890    0.6292    0.5486 O   0  0  0  0  0  0  0  0  0  0  0  0
    1.9694    1.5993   -1.4714 O   0  0  0  0  0  0  0  0  0  0  0  0
    3.1304    0.7057    0.3007 H   0  0  0  0  0  0  0  0  0  0  0  0
   -0.3174   -0.9568   -0.6885 H   0  0  0  0  0  0  0  0  0  0  0  0
   -0.0783   -0.5697    1.0116 H   0  0  0  0  0  0  0  0  0  0  0  0
   -2.2335    0.4035    0.9425 H   0  0  0  0  0  0  0  0  0  0  0  0
   -0.4844    1.4752   -1.2441 H   0  0  0  0  0  0  0  0  0  0  0  0
   -0.2997    1.8950    0.4478 H   0  0  0  0  0  0  0  0  0  0  0  0
  1  2  1  0
  1  4  1  0
  1  8  1  0
  1  9  1  0
  2  3  1  0
  2 11  1  0
  2 12  1  0
  3  5  1  0
  3  6  2  0
  4 10  1  0
  5  7  1  0
M  END
