OCCC(=O)O_6
     RDKit          3D

 12 11  0  0  0  0  0  0  0  0999 V2000
   -0.5826    0.0521    0.3370 C   0  0  0  0  0  0  0  0  0  0  0  0
    0.0235    1.1033   -0.5747 C   0  0  0  0  0  0  0  0  0  0  0  0
    1.4765    1.3295   -0.2920 C   0  0  0  0  0  0  0  0  0  0  0  0
   -1.9440   -0.1742    0.0418 O   0  0  0  0  0  0  0  0  0  0  0  0
    2.2379    0.2390   -0.0569 O   0  0  0  0  0  0  0  0  0  0  0  0
    1.9255    2.4547   -0.2944 O   0  0  0  0  0  0  0  0  0  0  0  0
    3.1510    0.5520    0.0915 H   0  0  0  0  0  0  0  0  0  0  0  0
   -0.0333   -0.8937    0.2282 H   0  0  0  0  0  0  0  0  0  0  0  0
   -0.4920    0.3639    1.3868 H   0  0  0  0  0  0  0  0  0  0  0  0
   -2.3341   -0.8558    0.6324 H   0  0  0  0  0  0  0  0  0  0  0  0
   -0.1027    0.8026   -1.6194 H   0  0  0  0  0  0  0  0  0  0  0  0
   -0.5169    2.0486   -0.4619 H   0  0  0  0  0  0  0  0  0  0  0  0
  1  2  1  0
  1  4  1  0
  1  8  1  0
  1  9  1  0
  2  3  1  0
  2 11  1  0
  2 12  1  0
  3  5  1  0
  3  6  2  0
  4 10  1  0
  5  7  1  0
M  END
