OCCC(=O)O_2
     RDKit          3D

 12 11  0  0  0  0  0  0  0  0999 V2000
   -0.8082    0.5410    0.5627 C   0  0  0  0  0  0  0  0  0  0  0  0
    0.2114    0.3478   -0.5456 C   0  0  0  0  0  0  0  0  0  0  0  0
    1.5506    0.8938   -0.1640 C   0  0  0  0  0  0  0  0  0  0  0  0
   -2.0784    0.0238    0.2444 O   0  0  0  0  0  0  0  0  0  0  0  0
    2.1270    1.7741   -1.0114 O   0  0  0  0  0  0  0  0  0  0  0  0
    2.0695    0.5381    0.8703 O   0  0  0  0  0  0  0  0  0  0  0  0
    2.9866    2.0302   -0.6257 H   0  0  0  0  0  0  0  0  0  0  0  0
   -0.4594    0.0801    1.4979 H   0  0  0  0  0  0  0  0  0  0  0  0
   -0.9453    1.6095    0.7767 H   0  0  0  0  0  0  0  0  0  0  0  0
   -2.0264   -0.9384    0.0555 H   0  0  0  0  0  0  0  0  0  0  0  0
    0.3143   -0.7159   -0.7807 H   0  0  0  0  0  0  0  0  0  0  0  0
   -0.1328    0.8378   -1.4618 H   0  0  0  0  0  0  0  0  0  0  0  0
  1  2  1  0
  1  4  1  0
  1  8  1  0
  1  9  1  0
  2  3  1  0
  2 11  1  0
  2 12  1  0
  3  5  1  0
  3  6  2  0
  4 10  1  0
  5  7  1  0
M  END
