OCCC(=O)O
     RDKit          3D

 12 11  0  0  0  0  0  0  0  0999 V2000
   -0.9077    0.4145    0.3484 C   0  0  0  0  0  0  0  0  0  0  0  0
   -0.0148    1.2424   -0.5741 C   0  0  0  0  0  0  0  0  0  0  0  0
    1.4246    1.1246   -0.1802 C   0  0  0  0  0  0  0  0  0  0  0  0
   -0.6059   -0.9473    0.2157 O   0  0  0  0  0  0  0  0  0  0  0  0
    2.2258    0.1486   -0.7646 O   0  0  0  0  0  0  0  0  0  0  0  0
    1.9011    1.8836    0.7057 O   0  0  0  0  0  0  0  0  0  0  0  0
    3.1977    0.0463   -0.4978 H   0  0  0  0  0  0  0  0  0  0  0  0
   -0.7617    0.7375    1.4040 H   0  0  0  0  0  0  0  0  0  0  0  0
   -1.9706    0.5885    0.0689 H   0  0  0  0  0  0  0  0  0  0  0  0
   -1.2123   -1.4251    0.8393 H   0  0  0  0  0  0  0  0  0  0  0  0
   -0.1427    0.8995   -1.6235 H   0  0  0  0  0  0  0  0  0  0  0  0
   -0.3246    2.3088   -0.5235 H   0  0  0  0  0  0  0  0  0  0  0  0
  1  2  1  0
  1  4  1  0
  1  8  1  0
  1  9  1  0
  2  3  1  0
  2 11  1  0
  2 12  1  0
  3  5  1  0
  3  6  2  0
  4 10  1  0
  5  7  1  0
M  END
