OCCC(=O)O_8
     RDKit          3D

 12 11  0  0  0  0  0  0  0  0999 V2000
   -0.8060    0.3666    0.3747 C   0  0  0  0  0  0  0  0  0  0  0  0
   -0.0292    1.3205   -0.5199 C   0  0  0  0  0  0  0  0  0  0  0  0
    1.4358    1.0122   -0.5096 C   0  0  0  0  0  0  0  0  0  0  0  0
   -0.8086   -0.9422   -0.1460 O   0  0  0  0  0  0  0  0  0  0  0  0
    1.9770    0.6114    0.6604 O   0  0  0  0  0  0  0  0  0  0  0  0
    2.0905    1.1530   -1.5186 O   0  0  0  0  0  0  0  0  0  0  0  0
    2.9271    0.4528    0.4984 H   0  0  0  0  0  0  0  0  0  0  0  0
   -0.3451    0.3437    1.3728 H   0  0  0  0  0  0  0  0  0  0  0  0
   -1.8493    0.6925    0.4906 H   0  0  0  0  0  0  0  0  0  0  0  0
   -1.2161   -1.5832    0.4780 H   0  0  0  0  0  0  0  0  0  0  0  0
   -0.3927    1.2325   -1.5487 H   0  0  0  0  0  0  0  0  0  0  0  0
   -0.1745    2.3621   -0.2138 H   0  0  0  0  0  0  0  0  0  0  0  0
  1  2  1  0
  1  4  1  0
  1  8  1  0
  1  9  1  0
  2  3  1  0
  2 11  1  0
  2 12  1  0
  3  5  1  0
  3  6  2  0
  4 10  1  0
  5  7  1  0
M  END
