OCCC(=O)O_1
     RDKit          3D

 12 11  0  0  0  0  0  0  0  0999 V2000
   -0.9925    0.4422    0.3889 C   0  0  0  0  0  0  0  0  0  0  0  0
   -0.0957    1.2771   -0.5141 C   0  0  0  0  0  0  0  0  0  0  0  0
    1.3558    1.0577   -0.2095 C   0  0  0  0  0  0  0  0  0  0  0  0
   -0.8114   -0.9377    0.1952 O   0  0  0  0  0  0  0  0  0  0  0  0
    1.8110   -0.2147   -0.2212 O   0  0  0  0  0  0  0  0  0  0  0  0
    2.0712    2.0046    0.0347 O   0  0  0  0  0  0  0  0  0  0  0  0
    2.7653   -0.1756   -0.0221 H   0  0  0  0  0  0  0  0  0  0  0  0
   -0.7919    0.6625    1.4469 H   0  0  0  0  0  0  0  0  0  0  0  0
   -2.0568    0.6504    0.2128 H   0  0  0  0  0  0  0  0  0  0  0  0
    0.1494   -1.1052    0.0772 H   0  0  0  0  0  0  0  0  0  0  0  0
   -0.2799    1.0153   -1.5605 H   0  0  0  0  0  0  0  0  0  0  0  0
   -0.3156    2.3452   -0.4099 H   0  0  0  0  0  0  0  0  0  0  0  0
  1  2  1  0
  1  4  1  0
  1  8  1  0
  1  9  1  0
  2  3  1  0
  2 11  1  0
  2 12  1  0
  3  5  1  0
  3  6  2  0
  4 10  1  0
  5  7  1  0
M  END
