C=COC=O.O
     RDKit          3D

 12 10  0  0  0  0  0  0  0  0999 V2000
   -1.4528    1.4025    1.9538 C   0  0  0  0  0  0  0  0  0  0  0  0
   -1.0840    2.0218    0.8322 C   0  0  0  0  0  0  0  0  0  0  0  0
    0.4025   -0.2580    2.1085 C   0  0  0  0  0  0  0  0  0  0  0  0
   -0.8963    0.1882    2.3848 O   0  0  0  0  0  0  0  0  0  0  0  0
   -1.4572   -1.4594   -0.6004 O   0  0  0  0  0  0  0  0  0  0  0  0
    1.2923    0.5246    1.6810 O   0  0  0  0  0  0  0  0  0  0  0  0
   -0.6549   -0.9175   -0.8083 H   0  0  0  0  0  0  0  0  0  0  0  0
   -2.1314   -0.7995   -0.2997 H   0  0  0  0  0  0  0  0  0  0  0  0
   -2.2515    1.8343    2.5428 H   0  0  0  0  0  0  0  0  0  0  0  0
    0.6590   -1.2883    2.3126 H   0  0  0  0  0  0  0  0  0  0  0  0
   -1.5637    2.9494    0.5482 H   0  0  0  0  0  0  0  0  0  0  0  0
   -0.3425    1.6038    0.1665 H   0  0  0  0  0  0  0  0  0  0  0  0
  1  2  2  0
  1  4  1  0
  1  9  1  0
  2 11  1  0
  2 12  1  0
  3  4  1  0
  3  6  2  0
  3 10  1  0
  5  7  1  0
  5  8  1  0
M  END
