C=COC=O.O_1
     RDKit          3D

 12 10  0  0  0  0  0  0  0  0999 V2000
   -0.9349    1.8707    2.2703 C   0  0  0  0  0  0  0  0  0  0  0  0
   -1.4626    1.7865    1.0608 C   0  0  0  0  0  0  0  0  0  0  0  0
    0.1434   -0.2111    2.2962 C   0  0  0  0  0  0  0  0  0  0  0  0
   -0.1523    0.9500    2.9322 O   0  0  0  0  0  0  0  0  0  0  0  0
   -1.2858   -0.8462   -1.4356 O   0  0  0  0  0  0  0  0  0  0  0  0
   -0.1764   -0.5897    1.2036 O   0  0  0  0  0  0  0  0  0  0  0  0
   -0.8809   -0.8190   -0.5447 H   0  0  0  0  0  0  0  0  0  0  0  0
   -1.0228   -1.7023   -1.8115 H   0  0  0  0  0  0  0  0  0  0  0  0
   -1.1101    2.7602    2.8647 H   0  0  0  0  0  0  0  0  0  0  0  0
    0.7597   -0.8872    2.8714 H   0  0  0  0  0  0  0  0  0  0  0  0
   -2.0594    2.5760    0.6513 H   0  0  0  0  0  0  0  0  0  0  0  0
   -1.2983    0.9141    0.4634 H   0  0  0  0  0  0  0  0  0  0  0  0
  1  2  2  0
  1  4  1  0
  1  9  1  0
  2 11  1  0
  2 12  1  0
  3  4  1  0
  3  6  2  0
  3 10  1  0
  5  7  1  0
  5  8  1  0
M  END
