C=COC=O.O_8
     RDKit          3D

 12 10  0  0  0  0  0  0  0  0999 V2000
   -0.6955    0.3339    1.2452 C   0  0  0  0  0  0  0  0  0  0  0  0
   -0.6115    1.5922    0.8460 C   0  0  0  0  0  0  0  0  0  0  0  0
    0.7767    0.4935    3.0465 C   0  0  0  0  0  0  0  0  0  0  0  0
   -0.0551   -0.2747    2.3002 O   0  0  0  0  0  0  0  0  0  0  0  0
   -2.6575   -0.4313   -0.9231 O   0  0  0  0  0  0  0  0  0  0  0  0
    1.0500    1.6567    2.9272 O   0  0  0  0  0  0  0  0  0  0  0  0
   -2.4425   -0.8844   -1.7539 H   0  0  0  0  0  0  0  0  0  0  0  0
   -3.6161   -0.5304   -0.8078 H   0  0  0  0  0  0  0  0  0  0  0  0
   -1.3390   -0.3519    0.7063 H   0  0  0  0  0  0  0  0  0  0  0  0
    1.2551   -0.0284    3.8617 H   0  0  0  0  0  0  0  0  0  0  0  0
   -1.1663    1.9481    0.0016 H   0  0  0  0  0  0  0  0  0  0  0  0
    0.0213    2.2784    1.3720 H   0  0  0  0  0  0  0  0  0  0  0  0
  1  2  2  0
  1  4  1  0
  1  9  1  0
  2 11  1  0
  2 12  1  0
  3  4  1  0
  3  6  2  0
  3 10  1  0
  5  7  1  0
  5  8  1  0
M  END
