C=COC=O.O_0
     RDKit          3D

 12 10  0  0  0  0  0  0  0  0999 V2000
   -0.7824    1.4509    1.3889 C   0  0  0  0  0  0  0  0  0  0  0  0
   -1.2035    2.7036    1.2911 C   0  0  0  0  0  0  0  0  0  0  0  0
    0.3904   -0.3268    2.2127 C   0  0  0  0  0  0  0  0  0  0  0  0
    0.1211    0.9950    2.3177 O   0  0  0  0  0  0  0  0  0  0  0  0
   -1.9061   -1.1326   -0.7802 O   0  0  0  0  0  0  0  0  0  0  0  0
   -0.0588   -1.1144    1.4242 O   0  0  0  0  0  0  0  0  0  0  0  0
   -1.2691   -1.1827   -0.0383 H   0  0  0  0  0  0  0  0  0  0  0  0
   -1.9589   -2.0356   -1.1331 H   0  0  0  0  0  0  0  0  0  0  0  0
   -1.1579    0.7029    0.7009 H   0  0  0  0  0  0  0  0  0  0  0  0
    1.0992   -0.7104    2.9330 H   0  0  0  0  0  0  0  0  0  0  0  0
   -1.9124    2.9962    0.5414 H   0  0  0  0  0  0  0  0  0  0  0  0
   -0.8421    3.4558    1.9638 H   0  0  0  0  0  0  0  0  0  0  0  0
  1  2  2  0
  1  4  1  0
  1  9  1  0
  2 11  1  0
  2 12  1  0
  3  4  1  0
  3  6  2  0
  3 10  1  0
  5  7  1  0
  5  8  1  0
M  END
