C=COC=O.O_4
     RDKit          3D

 12 10  0  0  0  0  0  0  0  0999 V2000
   -0.8569    1.4023    1.5553 C   0  0  0  0  0  0  0  0  0  0  0  0
   -1.6128    2.0150    0.6549 C   0  0  0  0  0  0  0  0  0  0  0  0
    0.3427   -0.2418    2.5431 C   0  0  0  0  0  0  0  0  0  0  0  0
   -0.4093    0.1066    1.4755 O   0  0  0  0  0  0  0  0  0  0  0  0
   -1.5220   -0.8283   -1.0514 O   0  0  0  0  0  0  0  0  0  0  0  0
    0.6289    0.4444    3.4881 O   0  0  0  0  0  0  0  0  0  0  0  0
   -1.2523   -1.7509   -1.1884 H   0  0  0  0  0  0  0  0  0  0  0  0
   -1.1273   -0.5605   -0.1969 H   0  0  0  0  0  0  0  0  0  0  0  0
   -0.5409    1.9313    2.4481 H   0  0  0  0  0  0  0  0  0  0  0  0
    0.7245   -1.2527    2.5369 H   0  0  0  0  0  0  0  0  0  0  0  0
   -1.9231    3.0323    0.7885 H   0  0  0  0  0  0  0  0  0  0  0  0
   -1.9320    1.5041   -0.2317 H   0  0  0  0  0  0  0  0  0  0  0  0
  1  2  2  0
  1  4  1  0
  1  9  1  0
  2 11  1  0
  2 12  1  0
  3  4  1  0
  3  6  2  0
  3 10  1  0
  5  7  1  0
  5  8  1  0
M  END
