C=COC=O.O_7
     RDKit          3D

 12 10  0  0  0  0  0  0  0  0999 V2000
   -0.4154    0.7291    1.6527 C   0  0  0  0  0  0  0  0  0  0  0  0
   -1.0940    1.2853    0.6604 C   0  0  0  0  0  0  0  0  0  0  0  0
    0.8278    0.5846    3.5402 C   0  0  0  0  0  0  0  0  0  0  0  0
    0.2127    1.4105    2.6641 O   0  0  0  0  0  0  0  0  0  0  0  0
   -2.5398   -0.2341   -1.6475 O   0  0  0  0  0  0  0  0  0  0  0  0
    0.8669   -0.6168    3.5074 O   0  0  0  0  0  0  0  0  0  0  0  0
   -3.4581   -0.5477   -1.6529 H   0  0  0  0  0  0  0  0  0  0  0  0
   -2.1424   -0.5673   -2.4677 H   0  0  0  0  0  0  0  0  0  0  0  0
   -0.3239   -0.3500    1.7098 H   0  0  0  0  0  0  0  0  0  0  0  0
    1.3384    1.0710    4.3584 H   0  0  0  0  0  0  0  0  0  0  0  0
   -1.5614    0.6872   -0.0977 H   0  0  0  0  0  0  0  0  0  0  0  0
   -1.1912    2.3500    0.5947 H   0  0  0  0  0  0  0  0  0  0  0  0
  1  2  2  0
  1  4  1  0
  1  9  1  0
  2 11  1  0
  2 12  1  0
  3  4  1  0
  3  6  2  0
  3 10  1  0
  5  7  1  0
  5  8  1  0
M  END
