C=COC=O.O_9
     RDKit          3D

 12 10  0  0  0  0  0  0  0  0999 V2000
   -0.6291    1.2648    1.7543 C   0  0  0  0  0  0  0  0  0  0  0  0
   -1.3593    1.4767    0.6696 C   0  0  0  0  0  0  0  0  0  0  0  0
    0.6509    0.1486    3.2533 C   0  0  0  0  0  0  0  0  0  0  0  0
   -0.0342    0.0748    2.0900 O   0  0  0  0  0  0  0  0  0  0  0  0
   -2.0463   -0.5820   -1.5670 O   0  0  0  0  0  0  0  0  0  0  0  0
    0.7731    1.1066    3.9698 O   0  0  0  0  0  0  0  0  0  0  0  0
   -2.5198   -0.6572   -2.4108 H   0  0  0  0  0  0  0  0  0  0  0  0
   -1.6671   -1.4592   -1.3967 H   0  0  0  0  0  0  0  0  0  0  0  0
   -0.4616    2.0694    2.4617 H   0  0  0  0  0  0  0  0  0  0  0  0
    1.1388   -0.7634    3.5647 H   0  0  0  0  0  0  0  0  0  0  0  0
   -1.7954    2.4351    0.4694 H   0  0  0  0  0  0  0  0  0  0  0  0
   -1.5306    0.6878   -0.0362 H   0  0  0  0  0  0  0  0  0  0  0  0
  1  2  2  0
  1  4  1  0
  1  9  1  0
  2 11  1  0
  2 12  1  0
  3  4  1  0
  3  6  2  0
  3 10  1  0
  5  7  1  0
  5  8  1  0
M  END
