O[C@@H]1CCOO1_0
     RDKit          3D

 12 12  0  0  0  0  0  0  0  0999 V2000
   -0.6755    0.1431    0.2554 C   0  0  0  0  0  0  0  0  0  0  0  0
    0.7193   -0.4193   -0.0429 C   0  0  0  0  0  0  0  0  0  0  0  0
    1.5783    0.1876    1.0837 C   0  0  1  0  0  0  0  0  0  0  0  0
   -0.5788    0.8672    1.4629 O   0  0  0  0  0  0  0  0  0  0  0  0
    2.1792    1.3874    0.6591 O   0  0  0  0  0  0  0  0  0  0  0  0
    0.6733    0.4621    2.1355 O   0  0  0  0  0  0  0  0  0  0  0  0
    1.5383    2.1034    0.8492 H   0  0  0  0  0  0  0  0  0  0  0  0
   -1.4306   -0.6398    0.4014 H   0  0  0  0  0  0  0  0  0  0  0  0
   -1.0316    0.8350   -0.5186 H   0  0  0  0  0  0  0  0  0  0  0  0
    2.3638   -0.4933    1.4509 H   0  0  0  0  0  0  0  0  0  0  0  0
    0.7339   -1.5146   -0.0103 H   0  0  0  0  0  0  0  0  0  0  0  0
    1.0985   -0.0995   -1.0193 H   0  0  0  0  0  0  0  0  0  0  0  0
  1  2  1  0
  1  4  1  0
  1  8  1  0
  1  9  1  0
  2  3  1  0
  2 11  1  0
  2 12  1  0
  3  5  1  0
  3  6  1  0
  3 10  1  1
  4  6  1  0
  5  7  1  0
M  END
