O[C@@H]1CCOO1
     RDKit          3D

 12 12  0  0  0  0  0  0  0  0999 V2000
   -0.7663   -0.0780    0.3587 C   0  0  0  0  0  0  0  0  0  0  0  0
    0.6732   -0.1389   -0.0607 C   0  0  0  0  0  0  0  0  0  0  0  0
    1.3311    0.5099    1.1281 C   0  0  1  0  0  0  0  0  0  0  0  0
   -0.7595    0.2990    1.7087 O   0  0  0  0  0  0  0  0  0  0  0  0
    2.2390    1.4991    0.7251 O   0  0  0  0  0  0  0  0  0  0  0  0
    0.2912    1.1005    1.8584 O   0  0  0  0  0  0  0  0  0  0  0  0
    3.0447    1.0229    0.3934 H   0  0  0  0  0  0  0  0  0  0  0  0
   -1.2550   -1.0693    0.2467 H   0  0  0  0  0  0  0  0  0  0  0  0
   -1.3230    0.6790   -0.2366 H   0  0  0  0  0  0  0  0  0  0  0  0
    1.8391   -0.2495    1.7681 H   0  0  0  0  0  0  0  0  0  0  0  0
    1.0190   -1.1890   -0.1817 H   0  0  0  0  0  0  0  0  0  0  0  0
    0.8344    0.4337   -1.0011 H   0  0  0  0  0  0  0  0  0  0  0  0
  1  2  1  0
  1  4  1  0
  1  8  1  0
  1  9  1  0
  2  3  1  0
  2 11  1  0
  2 12  1  0
  3  5  1  0
  3  6  1  0
  3 10  1  1
  4  6  1  0
  5  7  1  0
M  END
