O[C@@H]1CCOO1_2
     RDKit          3D

 12 12  0  0  0  0  0  0  0  0999 V2000
   -0.7409    0.0732    0.2478 C   0  0  0  0  0  0  0  0  0  0  0  0
    0.7093   -0.3502    0.0537 C   0  0  0  0  0  0  0  0  0  0  0  0
    1.4151    0.3966    1.1983 C   0  0  1  0  0  0  0  0  0  0  0  0
   -0.8928    0.4030    1.6088 O   0  0  0  0  0  0  0  0  0  0  0  0
    1.9078    1.6488    0.7665 O   0  0  0  0  0  0  0  0  0  0  0  0
    0.4461    0.5111    2.2306 O   0  0  0  0  0  0  0  0  0  0  0  0
    2.5925    1.5449    0.0689 H   0  0  0  0  0  0  0  0  0  0  0  0
   -1.4631   -0.7165    0.0020 H   0  0  0  0  0  0  0  0  0  0  0  0
   -0.9898    0.9753   -0.3263 H   0  0  0  0  0  0  0  0  0  0  0  0
    2.2546   -0.1801    1.6220 H   0  0  0  0  0  0  0  0  0  0  0  0
    0.8239   -1.4348    0.1577 H   0  0  0  0  0  0  0  0  0  0  0  0
    1.1052   -0.0519   -0.9229 H   0  0  0  0  0  0  0  0  0  0  0  0
  1  2  1  0
  1  4  1  0
  1  8  1  0
  1  9  1  0
  2  3  1  0
  2 11  1  0
  2 12  1  0
  3  5  1  0
  3  6  1  0
  3 10  1  1
  4  6  1  0
  5  7  1  0
M  END
