CO/C(=C\O)/O_1
     RDKit          3D

 12 11  0  0  0  0  0  0  0  0999 V2000
    0.8944   -0.2337   -0.9340 C   0  0  0  0  0  0  0  0  0  0  0  0
    0.9625    0.5488    1.2635 C   0  0  0  0  0  0  0  0  0  0  0  0
    0.2908    1.1827    2.2530 C   0  0  0  0  0  0  0  0  0  0  0  0
    0.1964   -0.0655    0.2718 O   0  0  0  0  0  0  0  0  0  0  0  0
    2.3447    0.5372    1.2776 O   0  0  0  0  0  0  0  0  0  0  0  0
   -1.0956    1.2238    2.2840 O   0  0  0  0  0  0  0  0  0  0  0  0
    2.6849   -0.1583    0.6776 H   0  0  0  0  0  0  0  0  0  0  0  0
    1.5475   -1.1059   -0.8649 H   0  0  0  0  0  0  0  0  0  0  0  0
    1.4741    0.6662   -1.1535 H   0  0  0  0  0  0  0  0  0  0  0  0
    0.8240    1.6775    3.0498 H   0  0  0  0  0  0  0  0  0  0  0  0
   -1.4289    0.7099    1.5129 H   0  0  0  0  0  0  0  0  0  0  0  0
    0.1667   -0.3969   -1.7321 H   0  0  0  0  0  0  0  0  0  0  0  0
  1  4  1  0
  1  8  1  0
  1  9  1  0
  1 12  1  0
  2  3  2  0
  2  4  1  0
  2  5  1  0
  3  6  1  0
  3 10  1  0
  5  7  1  0
  6 11  1  0
M  END
