CO/C(=C\O)/O_0
     RDKit          3D

 12 11  0  0  0  0  0  0  0  0999 V2000
    0.8053   -0.4194   -0.9958 C   0  0  0  0  0  0  0  0  0  0  0  0
    0.9375    0.5966    1.0460 C   0  0  0  0  0  0  0  0  0  0  0  0
    0.3858    1.0832    2.1812 C   0  0  0  0  0  0  0  0  0  0  0  0
    0.0805    0.0310    0.1099 O   0  0  0  0  0  0  0  0  0  0  0  0
    2.3004    0.6605    0.8273 O   0  0  0  0  0  0  0  0  0  0  0  0
   -0.9815    1.0225    2.4077 O   0  0  0  0  0  0  0  0  0  0  0  0
    2.7530    1.0887    1.5862 H   0  0  0  0  0  0  0  0  0  0  0  0
    0.1157   -0.8602   -1.7195 H   0  0  0  0  0  0  0  0  0  0  0  0
    1.5302   -1.1670   -0.6632 H   0  0  0  0  0  0  0  0  0  0  0  0
    0.9998    1.5332    2.9437 H   0  0  0  0  0  0  0  0  0  0  0  0
   -1.3952    0.5883    1.6265 H   0  0  0  0  0  0  0  0  0  0  0  0
    1.3300    0.4283   -1.4441 H   0  0  0  0  0  0  0  0  0  0  0  0
  1  4  1  0
  1  8  1  0
  1  9  1  0
  1 12  1  0
  2  3  2  0
  2  4  1  0
  2  5  1  0
  3  6  1  0
  3 10  1  0
  5  7  1  0
  6 11  1  0
M  END
