OC(=O)C=C.O_1
     RDKit          3D

 12 10  0  0  0  0  0  0  0  0999 V2000
    1.0582   -1.0763   -0.0781 C   0  0  0  0  0  0  0  0  0  0  0  0
    0.8969   -0.1805    0.8774 C   0  0  0  0  0  0  0  0  0  0  0  0
   -0.3721    0.5260    1.0820 C   0  0  0  0  0  0  0  0  0  0  0  0
   -0.4231    1.4270    2.0966 O   0  0  0  0  0  0  0  0  0  0  0  0
   -3.3328    2.0465    1.4119 O   0  0  0  0  0  0  0  0  0  0  0  0
   -1.3231    0.2959    0.3595 O   0  0  0  0  0  0  0  0  0  0  0  0
   -4.1936    2.0191    0.9658 H   0  0  0  0  0  0  0  0  0  0  0  0
   -1.3239    1.8124    2.1079 H   0  0  0  0  0  0  0  0  0  0  0  0
    0.2546   -1.3214   -0.7472 H   0  0  0  0  0  0  0  0  0  0  0  0
    1.9930   -1.5844   -0.2147 H   0  0  0  0  0  0  0  0  0  0  0  0
   -2.7702    1.4003    0.9372 H   0  0  0  0  0  0  0  0  0  0  0  0
    1.7071    0.0597    1.5439 H   0  0  0  0  0  0  0  0  0  0  0  0
  1  2  2  0
  1  9  1  0
  1 10  1  0
  2  3  1  0
  2 12  1  0
  3  4  1  0
  3  6  2  0
  4  8  1  0
  5  7  1  0
  5 11  1  0
M  END
