OC(=O)C=C.O_5
     RDKit          3D

 12 10  0  0  0  0  0  0  0  0999 V2000
    0.2283   -0.2235   -0.2330 C   0  0  0  0  0  0  0  0  0  0  0  0
    0.7460   -0.2062    0.9805 C   0  0  0  0  0  0  0  0  0  0  0  0
    0.0699    0.3867    2.1404 C   0  0  0  0  0  0  0  0  0  0  0  0
   -1.1509    0.9492    1.9716 O   0  0  0  0  0  0  0  0  0  0  0  0
   -2.7589    1.1914   -0.4361 O   0  0  0  0  0  0  0  0  0  0  0  0
    0.6127    0.3641    3.2281 O   0  0  0  0  0  0  0  0  0  0  0  0
   -3.6030    1.6337   -0.2513 H   0  0  0  0  0  0  0  0  0  0  0  0
   -1.4204    1.2794    2.8512 H   0  0  0  0  0  0  0  0  0  0  0  0
   -0.7341    0.2045   -0.4342 H   0  0  0  0  0  0  0  0  0  0  0  0
    0.7528   -0.6666   -1.0568 H   0  0  0  0  0  0  0  0  0  0  0  0
   -2.2851    1.1532    0.4194 H   0  0  0  0  0  0  0  0  0  0  0  0
    1.7139   -0.6415    1.1627 H   0  0  0  0  0  0  0  0  0  0  0  0
  1  2  2  0
  1  9  1  0
  1 10  1  0
  2  3  1  0
  2 12  1  0
  3  4  1  0
  3  6  2  0
  4  8  1  0
  5  7  1  0
  5 11  1  0
M  END
