OC(=O)C=C.O_2
     RDKit          3D

 12 10  0  0  0  0  0  0  0  0999 V2000
    1.3471   -1.0602    0.7937 C   0  0  0  0  0  0  0  0  0  0  0  0
    0.7596   -0.0640    0.1586 C   0  0  0  0  0  0  0  0  0  0  0  0
   -0.4973    0.5323    0.6221 C   0  0  0  0  0  0  0  0  0  0  0  0
   -1.0487    0.0150    1.7498 O   0  0  0  0  0  0  0  0  0  0  0  0
   -3.3572    1.9954    1.5504 O   0  0  0  0  0  0  0  0  0  0  0  0
   -1.0050    1.4502    0.0060 O   0  0  0  0  0  0  0  0  0  0  0  0
   -3.9235    2.7128    1.2260 H   0  0  0  0  0  0  0  0  0  0  0  0
   -1.8739    0.5116    1.9293 H   0  0  0  0  0  0  0  0  0  0  0  0
    0.9196   -1.4766    1.6864 H   0  0  0  0  0  0  0  0  0  0  0  0
    2.2668   -1.4829    0.4383 H   0  0  0  0  0  0  0  0  0  0  0  0
   -2.6115    1.9435    0.9174 H   0  0  0  0  0  0  0  0  0  0  0  0
    1.1952    0.3473   -0.7356 H   0  0  0  0  0  0  0  0  0  0  0  0
  1  2  2  0
  1  9  1  0
  1 10  1  0
  2  3  1  0
  2 12  1  0
  3  4  1  0
  3  6  2  0
  4  8  1  0
  5  7  1  0
  5 11  1  0
M  END
