OC(=O)C=C.O_0
     RDKit          3D

 12 10  0  0  0  0  0  0  0  0999 V2000
    0.2784   -0.2310   -0.2335 C   0  0  0  0  0  0  0  0  0  0  0  0
    0.6773    0.0387    0.9956 C   0  0  0  0  0  0  0  0  0  0  0  0
   -0.1908    0.6698    1.9968 C   0  0  0  0  0  0  0  0  0  0  0  0
    0.3444    0.8918    3.2214 O   0  0  0  0  0  0  0  0  0  0  0  0
   -2.9175    0.7299   -0.6488 O   0  0  0  0  0  0  0  0  0  0  0  0
   -1.3354    0.9755    1.7293 O   0  0  0  0  0  0  0  0  0  0  0  0
   -3.8044    1.0883   -0.4824 H   0  0  0  0  0  0  0  0  0  0  0  0
   -0.3476    1.3118    3.7680 H   0  0  0  0  0  0  0  0  0  0  0  0
   -0.7166    0.0040   -0.5596 H   0  0  0  0  0  0  0  0  0  0  0  0
    0.9351   -0.6931   -0.9445 H   0  0  0  0  0  0  0  0  0  0  0  0
   -2.4309    0.8425    0.1940 H   0  0  0  0  0  0  0  0  0  0  0  0
    1.6791   -0.2040    1.3060 H   0  0  0  0  0  0  0  0  0  0  0  0
  1  2  2  0
  1  9  1  0
  1 10  1  0
  2  3  1  0
  2 12  1  0
  3  4  1  0
  3  6  2  0
  4  8  1  0
  5  7  1  0
  5 11  1  0
M  END
