OC(=O)C=C.O_4
     RDKit          3D

 12 10  0  0  0  0  0  0  0  0999 V2000
    0.6403   -1.0736    0.0113 C   0  0  0  0  0  0  0  0  0  0  0  0
   -0.1628   -0.1241    0.4525 C   0  0  0  0  0  0  0  0  0  0  0  0
   -0.3833    0.1094    1.8854 C   0  0  0  0  0  0  0  0  0  0  0  0
   -1.2263    1.1085    2.2457 O   0  0  0  0  0  0  0  0  0  0  0  0
   -2.1891    2.3092   -0.2185 O   0  0  0  0  0  0  0  0  0  0  0  0
    0.1825   -0.5833    2.7080 O   0  0  0  0  0  0  0  0  0  0  0  0
   -1.9138    1.9623    0.6538 H   0  0  0  0  0  0  0  0  0  0  0  0
   -1.2495    1.1158    3.2215 H   0  0  0  0  0  0  0  0  0  0  0  0
    1.1658   -1.7149    0.6944 H   0  0  0  0  0  0  0  0  0  0  0  0
    0.7927   -1.2336   -1.0386 H   0  0  0  0  0  0  0  0  0  0  0  0
   -2.8026    3.0374   -0.0292 H   0  0  0  0  0  0  0  0  0  0  0  0
   -0.6829    0.5112   -0.2439 H   0  0  0  0  0  0  0  0  0  0  0  0
  1  2  2  0
  1  9  1  0
  1 10  1  0
  2  3  1  0
  2 12  1  0
  3  4  1  0
  3  6  2  0
  4  8  1  0
  5  7  1  0
  5 11  1  0
M  END
