C=CC=N.[H][H]_0
     RDKit          3D

 11  9  0  0  0  0  0  0  0  0999 V2000
    0.0783    1.3035    1.2846 C   0  0  0  0  0  0  0  0  0  0  0  0
    0.2292    1.5570    2.5151 N   0  0  0  0  0  0  0  0  0  0  0  0
   -0.3633    0.0364    0.7642 C   0  0  0  0  0  0  0  0  0  0  0  0
   -0.5246   -0.1981   -0.5319 C   0  0  0  0  0  0  0  0  0  0  0  0
   -2.8794    1.9648    0.8407 H   0  0  0  0  0  0  0  0  0  0  0  0
    0.0410    0.8620    3.1939 H   0  0  0  0  0  0  0  0  0  0  0  0
   -3.1532    1.2385    0.8074 H   0  0  0  0  0  0  0  0  0  0  0  0
    0.2955    2.0960    0.5876 H   0  0  0  0  0  0  0  0  0  0  0  0
   -0.5699   -0.7462    1.4753 H   0  0  0  0  0  0  0  0  0  0  0  0
   -0.3278    0.5639   -1.2609 H   0  0  0  0  0  0  0  0  0  0  0  0
   -0.8568   -1.1523   -0.8933 H   0  0  0  0  0  0  0  0  0  0  0  0
  1  2  2  0
  1  3  1  0
  1  8  1  0
  2  6  1  0
  3  4  2  0
  3  9  1  0
  4 10  1  0
  4 11  1  0
  5  7  1  0
M  END
