C=CC=N.[H][H]
     RDKit          3D

 11  9  0  0  0  0  0  0  0  0999 V2000
   -0.2876    0.6845    1.7398 C   0  0  0  0  0  0  0  0  0  0  0  0
    0.5358    1.3653    2.4666 N   0  0  0  0  0  0  0  0  0  0  0  0
    0.0757    0.3230    0.3652 C   0  0  0  0  0  0  0  0  0  0  0  0
   -0.7526   -0.3741   -0.4068 C   0  0  0  0  0  0  0  0  0  0  0  0
   -2.5161    2.3287    0.1135 H   0  0  0  0  0  0  0  0  0  0  0  0
    0.2884    1.6294    3.4460 H   0  0  0  0  0  0  0  0  0  0  0  0
   -2.9813    1.8788    0.4005 H   0  0  0  0  0  0  0  0  0  0  0  0
   -1.2452    0.3848    2.1505 H   0  0  0  0  0  0  0  0  0  0  0  0
    1.0365    0.6296   -0.0306 H   0  0  0  0  0  0  0  0  0  0  0  0
   -1.7210   -0.6956   -0.0436 H   0  0  0  0  0  0  0  0  0  0  0  0
   -0.4636   -0.6288   -1.4182 H   0  0  0  0  0  0  0  0  0  0  0  0
  1  2  2  0
  1  3  1  0
  1  8  1  0
  2  6  1  0
  3  4  2  0
  3  9  1  0
  4 10  1  0
  4 11  1  0
  5  7  1  0
M  END
