CC(=O)COO_1
     RDKit          3D

 12 11  0  0  0  0  0  0  0  0999 V2000
    0.6059   -0.0407    1.6437 C   0  0  0  0  0  0  0  0  0  0  0  0
    1.0514    1.6092   -0.2954 C   0  0  0  0  0  0  0  0  0  0  0  0
    0.6060    0.2714    0.1778 C   0  0  0  0  0  0  0  0  0  0  0  0
    0.9468   -1.3807    1.8379 O   0  0  0  0  0  0  0  0  0  0  0  0
   -0.0880   -2.2369    1.3102 O   0  0  0  0  0  0  0  0  0  0  0  0
    0.2464   -0.5661   -0.5991 O   0  0  0  0  0  0  0  0  0  0  0  0
    0.0188   -2.1375    0.3475 H   0  0  0  0  0  0  0  0  0  0  0  0
   -0.3929    0.0946    2.0737 H   0  0  0  0  0  0  0  0  0  0  0  0
    1.3255    0.5735    2.1958 H   0  0  0  0  0  0  0  0  0  0  0  0
    0.3532    1.9902   -1.0413 H   0  0  0  0  0  0  0  0  0  0  0  0
    1.1088    2.3286    0.5223 H   0  0  0  0  0  0  0  0  0  0  0  0
    2.0336    1.5352   -0.7634 H   0  0  0  0  0  0  0  0  0  0  0  0
  1  3  1  0
  1  4  1  0
  1  8  1  0
  1  9  1  0
  2  3  1  0
  2 10  1  0
  2 11  1  0
  2 12  1  0
  3  6  2  0
  4  5  1  0
  5  7  1  0
M  END
