CC(=O)COO_3
     RDKit          3D

 12 11  0  0  0  0  0  0  0  0999 V2000
   -0.0423   -0.2721    1.0220 C   0  0  0  0  0  0  0  0  0  0  0  0
    1.2887    1.3533   -0.4687 C   0  0  0  0  0  0  0  0  0  0  0  0
    0.0160    0.9853    0.2027 C   0  0  0  0  0  0  0  0  0  0  0  0
    1.2279   -0.7941    1.3019 O   0  0  0  0  0  0  0  0  0  0  0  0
    1.0978   -2.1142    1.9180 O   0  0  0  0  0  0  0  0  0  0  0  0
   -0.9651    1.6689    0.0897 O   0  0  0  0  0  0  0  0  0  0  0  0
    1.4946   -2.0023    2.7977 H   0  0  0  0  0  0  0  0  0  0  0  0
   -0.5987   -1.0538    0.4931 H   0  0  0  0  0  0  0  0  0  0  0  0
   -0.5410   -0.0843    1.9787 H   0  0  0  0  0  0  0  0  0  0  0  0
    1.6021    2.3507   -0.1578 H   0  0  0  0  0  0  0  0  0  0  0  0
    2.0794    0.6439   -0.2165 H   0  0  0  0  0  0  0  0  0  0  0  0
    1.1560    1.3594   -1.5512 H   0  0  0  0  0  0  0  0  0  0  0  0
  1  3  1  0
  1  4  1  0
  1  8  1  0
  1  9  1  0
  2  3  1  0
  2 10  1  0
  2 11  1  0
  2 12  1  0
  3  6  2  0
  4  5  1  0
  5  7  1  0
M  END
