OCCOC=O_0
     RDKit          3D

 12 11  0  0  0  0  0  0  0  0999 V2000
   -0.2057    1.0088   -0.3099 C   0  0  0  0  0  0  0  0  0  0  0  0
    0.9066    0.0960   -0.8237 C   0  0  0  0  0  0  0  0  0  0  0  0
   -0.4822    0.5462    1.9268 C   0  0  0  0  0  0  0  0  0  0  0  0
   -0.9912    0.3861    0.6840 O   0  0  0  0  0  0  0  0  0  0  0  0
    1.9259   -0.0883    0.1285 O   0  0  0  0  0  0  0  0  0  0  0  0
    0.5615    1.0549    2.2438 O   0  0  0  0  0  0  0  0  0  0  0  0
    1.6061    0.2667    0.9889 H   0  0  0  0  0  0  0  0  0  0  0  0
   -0.8958    1.2889   -1.1169 H   0  0  0  0  0  0  0  0  0  0  0  0
    0.2036    1.9359    0.1137 H   0  0  0  0  0  0  0  0  0  0  0  0
   -1.0883    0.1450    2.7262 H   0  0  0  0  0  0  0  0  0  0  0  0
    0.5019   -0.8952   -1.0684 H   0  0  0  0  0  0  0  0  0  0  0  0
    1.3803    0.4948   -1.7313 H   0  0  0  0  0  0  0  0  0  0  0  0
  1  2  1  0
  1  4  1  0
  1  8  1  0
  1  9  1  0
  2  5  1  0
  2 11  1  0
  2 12  1  0
  3  4  1  0
  3  6  2  0
  3 10  1  0
  5  7  1  0
M  END
