OCCOC=O_1
     RDKit          3D

 12 11  0  0  0  0  0  0  0  0999 V2000
   -0.4072    0.4274   -0.3111 C   0  0  0  0  0  0  0  0  0  0  0  0
    1.0717    0.6319   -0.5948 C   0  0  0  0  0  0  0  0  0  0  0  0
   -0.3287    0.8572    1.8972 C   0  0  0  0  0  0  0  0  0  0  0  0
   -0.5734   -0.1001    0.9774 O   0  0  0  0  0  0  0  0  0  0  0  0
    1.7658   -0.5560   -0.3458 O   0  0  0  0  0  0  0  0  0  0  0  0
    0.0251    1.9902    1.6951 O   0  0  0  0  0  0  0  0  0  0  0  0
    1.3985   -0.9711    0.4674 H   0  0  0  0  0  0  0  0  0  0  0  0
   -0.8424   -0.3003   -1.0086 H   0  0  0  0  0  0  0  0  0  0  0  0
   -0.9828    1.3621   -0.3768 H   0  0  0  0  0  0  0  0  0  0  0  0
   -0.4587    0.5594    2.9277 H   0  0  0  0  0  0  0  0  0  0  0  0
    1.2670    0.9323   -1.6326 H   0  0  0  0  0  0  0  0  0  0  0  0
    1.4877    1.4068    0.0666 H   0  0  0  0  0  0  0  0  0  0  0  0
  1  2  1  0
  1  4  1  0
  1  8  1  0
  1  9  1  0
  2  5  1  0
  2 11  1  0
  2 12  1  0
  3  4  1  0
  3  6  2  0
  3 10  1  0
  5  7  1  0
M  END
