OCCOC=O_3
     RDKit          3D

 12 11  0  0  0  0  0  0  0  0999 V2000
    0.9156    0.7336    0.8295 C   0  0  0  0  0  0  0  0  0  0  0  0
    0.7565   -0.0529   -0.4679 C   0  0  0  0  0  0  0  0  0  0  0  0
   -1.2653    0.6862    1.4335 C   0  0  0  0  0  0  0  0  0  0  0  0
   -0.0154    0.3480    1.8144 O   0  0  0  0  0  0  0  0  0  0  0  0
    1.7224    0.2771   -1.4363 O   0  0  0  0  0  0  0  0  0  0  0  0
   -1.6022    1.2018    0.3991 O   0  0  0  0  0  0  0  0  0  0  0  0
    1.6472    1.2210   -1.6953 H   0  0  0  0  0  0  0  0  0  0  0  0
    0.7859    1.8103    0.6569 H   0  0  0  0  0  0  0  0  0  0  0  0
    1.9175    0.5827    1.2520 H   0  0  0  0  0  0  0  0  0  0  0  0
   -2.0469    0.4519    2.1419 H   0  0  0  0  0  0  0  0  0  0  0  0
    0.8516   -1.1283   -0.2716 H   0  0  0  0  0  0  0  0  0  0  0  0
   -0.2443    0.1081   -0.8945 H   0  0  0  0  0  0  0  0  0  0  0  0
  1  2  1  0
  1  4  1  0
  1  8  1  0
  1  9  1  0
  2  5  1  0
  2 11  1  0
  2 12  1  0
  3  4  1  0
  3  6  2  0
  3 10  1  0
  5  7  1  0
M  END
