OCCOC=O_7
     RDKit          3D

 12 11  0  0  0  0  0  0  0  0999 V2000
   -0.4767    0.5061   -0.2897 C   0  0  0  0  0  0  0  0  0  0  0  0
    1.0410    0.5441   -0.4190 C   0  0  0  0  0  0  0  0  0  0  0  0
   -0.5514    0.8227    1.9424 C   0  0  0  0  0  0  0  0  0  0  0  0
   -0.8804   -0.0242    0.9441 O   0  0  0  0  0  0  0  0  0  0  0  0
    1.5716   -0.7557   -0.4509 O   0  0  0  0  0  0  0  0  0  0  0  0
    0.0118    1.8830    1.8493 O   0  0  0  0  0  0  0  0  0  0  0  0
    2.5544   -0.7502   -0.4245 H   0  0  0  0  0  0  0  0  0  0  0  0
   -0.9092   -0.1389   -1.0661 H   0  0  0  0  0  0  0  0  0  0  0  0
   -0.9242    1.5067   -0.3778 H   0  0  0  0  0  0  0  0  0  0  0  0
   -0.8271    0.4991    2.9360 H   0  0  0  0  0  0  0  0  0  0  0  0
    1.3506    1.0738   -1.3303 H   0  0  0  0  0  0  0  0  0  0  0  0
    1.4621    1.0734    0.4483 H   0  0  0  0  0  0  0  0  0  0  0  0
  1  2  1  0
  1  4  1  0
  1  8  1  0
  1  9  1  0
  2  5  1  0
  2 11  1  0
  2 12  1  0
  3  4  1  0
  3  6  2  0
  3 10  1  0
  5  7  1  0
M  END
