OCCOC=O_4
     RDKit          3D

 12 11  0  0  0  0  0  0  0  0999 V2000
    0.7705    1.0818    0.6212 C   0  0  0  0  0  0  0  0  0  0  0  0
    0.7031    0.0096   -0.4626 C   0  0  0  0  0  0  0  0  0  0  0  0
   -1.2466    0.5642    1.5366 C   0  0  0  0  0  0  0  0  0  0  0  0
    0.0695    0.7238    1.7919 O   0  0  0  0  0  0  0  0  0  0  0  0
    1.5261    0.2790   -1.5716 O   0  0  0  0  0  0  0  0  0  0  0  0
   -1.8082    0.6421    0.4749 O   0  0  0  0  0  0  0  0  0  0  0  0
    2.4676    0.3506   -1.3018 H   0  0  0  0  0  0  0  0  0  0  0  0
    0.3527    2.0308    0.2587 H   0  0  0  0  0  0  0  0  0  0  0  0
    1.8095    1.2703    0.9186 H   0  0  0  0  0  0  0  0  0  0  0  0
   -1.8576    0.3231    2.3945 H   0  0  0  0  0  0  0  0  0  0  0  0
    0.9613   -0.9766   -0.0547 H   0  0  0  0  0  0  0  0  0  0  0  0
   -0.3253   -0.0588   -0.8440 H   0  0  0  0  0  0  0  0  0  0  0  0
  1  2  1  0
  1  4  1  0
  1  8  1  0
  1  9  1  0
  2  5  1  0
  2 11  1  0
  2 12  1  0
  3  4  1  0
  3  6  2  0
  3 10  1  0
  5  7  1  0
M  END
