OCCOC=O_6
     RDKit          3D

 12 11  0  0  0  0  0  0  0  0999 V2000
    0.4460    0.5729    0.4729 C   0  0  0  0  0  0  0  0  0  0  0  0
    1.0015   -0.1627   -0.7405 C   0  0  0  0  0  0  0  0  0  0  0  0
   -1.3448    0.8750    1.7940 C   0  0  0  0  0  0  0  0  0  0  0  0
   -0.7966    0.0514    0.8774 O   0  0  0  0  0  0  0  0  0  0  0  0
    2.2464    0.3384   -1.1640 O   0  0  0  0  0  0  0  0  0  0  0  0
   -0.8897    1.9109    2.2056 O   0  0  0  0  0  0  0  0  0  0  0  0
    2.1861    1.2939   -1.3810 H   0  0  0  0  0  0  0  0  0  0  0  0
    0.3041    1.6412    0.2607 H   0  0  0  0  0  0  0  0  0  0  0  0
    1.1307    0.5002    1.3289 H   0  0  0  0  0  0  0  0  0  0  0  0
   -2.3011    0.5648    2.1909 H   0  0  0  0  0  0  0  0  0  0  0  0
    1.1462   -1.2245   -0.5040 H   0  0  0  0  0  0  0  0  0  0  0  0
    0.2937   -0.1216   -1.5791 H   0  0  0  0  0  0  0  0  0  0  0  0
  1  2  1  0
  1  4  1  0
  1  8  1  0
  1  9  1  0
  2  5  1  0
  2 11  1  0
  2 12  1  0
  3  4  1  0
  3  6  2  0
  3 10  1  0
  5  7  1  0
M  END
